* NGSPICE file created from cic_con.ext - technology: sky130A

* Black-box entry subcircuit for sky130_fd_sc_hd__decap_3 abstract view
.subckt sky130_fd_sc_hd__decap_3 VGND VNB VPB VPWR
.ends

* Black-box entry subcircuit for sky130_fd_sc_hd__mux4_2 abstract view
.subckt sky130_fd_sc_hd__mux4_2 A0 A1 A2 A3 S0 S1 VGND VNB VPB VPWR X
.ends

* Black-box entry subcircuit for sky130_fd_sc_hd__a22o_1 abstract view
.subckt sky130_fd_sc_hd__a22o_1 A1 A2 B1 B2 VGND VNB VPB VPWR X
.ends

* Black-box entry subcircuit for sky130_fd_sc_hd__decap_4 abstract view
.subckt sky130_fd_sc_hd__decap_4 VGND VNB VPB VPWR
.ends

* Black-box entry subcircuit for sky130_fd_sc_hd__decap_12 abstract view
.subckt sky130_fd_sc_hd__decap_12 VGND VNB VPB VPWR
.ends

* Black-box entry subcircuit for sky130_fd_sc_hd__fill_2 abstract view
.subckt sky130_fd_sc_hd__fill_2 VGND VNB VPB VPWR
.ends

* Black-box entry subcircuit for sky130_fd_sc_hd__inv_2 abstract view
.subckt sky130_fd_sc_hd__inv_2 A VGND VNB VPB VPWR Y
.ends

* Black-box entry subcircuit for sky130_fd_sc_hd__decap_6 abstract view
.subckt sky130_fd_sc_hd__decap_6 VGND VNB VPB VPWR
.ends

* Black-box entry subcircuit for sky130_fd_sc_hd__decap_8 abstract view
.subckt sky130_fd_sc_hd__decap_8 VGND VNB VPB VPWR
.ends

* Black-box entry subcircuit for sky130_fd_sc_hd__clkbuf_16 abstract view
.subckt sky130_fd_sc_hd__clkbuf_16 A VGND VNB VPB VPWR X
.ends

* Black-box entry subcircuit for sky130_fd_sc_hd__dfxtp_1 abstract view
.subckt sky130_fd_sc_hd__dfxtp_1 CLK D VGND VNB VPB VPWR Q
.ends

* Black-box entry subcircuit for sky130_fd_sc_hd__and2_1 abstract view
.subckt sky130_fd_sc_hd__and2_1 A B VGND VNB VPB VPWR X
.ends

* Black-box entry subcircuit for sky130_fd_sc_hd__fill_1 abstract view
.subckt sky130_fd_sc_hd__fill_1 VGND VNB VPB VPWR
.ends

* Black-box entry subcircuit for sky130_fd_sc_hd__mux2_1 abstract view
.subckt sky130_fd_sc_hd__mux2_1 A0 A1 S VGND VNB VPB VPWR X
.ends

* Black-box entry subcircuit for sky130_fd_sc_hd__tapvpwrvgnd_1 abstract view
.subckt sky130_fd_sc_hd__tapvpwrvgnd_1 VGND VPWR
.ends

* Black-box entry subcircuit for sky130_fd_sc_hd__diode_2 abstract view
.subckt sky130_fd_sc_hd__diode_2 DIODE VGND VNB VPB VPWR
.ends

* Black-box entry subcircuit for sky130_fd_sc_hd__clkbuf_2 abstract view
.subckt sky130_fd_sc_hd__clkbuf_2 A VGND VNB VPB VPWR X
.ends

* Black-box entry subcircuit for sky130_fd_sc_hd__buf_2 abstract view
.subckt sky130_fd_sc_hd__buf_2 A VGND VNB VPB VPWR X
.ends

* Black-box entry subcircuit for sky130_fd_sc_hd__mux4_1 abstract view
.subckt sky130_fd_sc_hd__mux4_1 A0 A1 A2 A3 S0 S1 VGND VNB VPB VPWR X
.ends

* Black-box entry subcircuit for sky130_fd_sc_hd__clkbuf_1 abstract view
.subckt sky130_fd_sc_hd__clkbuf_1 A VGND VNB VPB VPWR X
.ends

* Black-box entry subcircuit for sky130_fd_sc_hd__or4_4 abstract view
.subckt sky130_fd_sc_hd__or4_4 A B C D VGND VNB VPB VPWR X
.ends

* Black-box entry subcircuit for sky130_fd_sc_hd__nor2b_4 abstract view
.subckt sky130_fd_sc_hd__nor2b_4 A B_N VGND VNB VPB VPWR Y
.ends

* Black-box entry subcircuit for sky130_fd_sc_hd__o211a_1 abstract view
.subckt sky130_fd_sc_hd__o211a_1 A1 A2 B1 C1 VGND VNB VPB VPWR X
.ends

* Black-box entry subcircuit for sky130_fd_sc_hd__buf_8 abstract view
.subckt sky130_fd_sc_hd__buf_8 A VGND VNB VPB VPWR X
.ends

* Black-box entry subcircuit for sky130_fd_sc_hd__buf_1 abstract view
.subckt sky130_fd_sc_hd__buf_1 A VGND VNB VPB VPWR X
.ends

* Black-box entry subcircuit for sky130_fd_sc_hd__or2_4 abstract view
.subckt sky130_fd_sc_hd__or2_4 A B VGND VNB VPB VPWR X
.ends

* Black-box entry subcircuit for sky130_fd_sc_hd__or2_2 abstract view
.subckt sky130_fd_sc_hd__or2_2 A B VGND VNB VPB VPWR X
.ends

* Black-box entry subcircuit for sky130_fd_sc_hd__buf_12 abstract view
.subckt sky130_fd_sc_hd__buf_12 A VGND VNB VPB VPWR X
.ends

* Black-box entry subcircuit for sky130_fd_sc_hd__or3b_4 abstract view
.subckt sky130_fd_sc_hd__or3b_4 A B C_N VGND VNB VPB VPWR X
.ends

* Black-box entry subcircuit for sky130_fd_sc_hd__buf_4 abstract view
.subckt sky130_fd_sc_hd__buf_4 A VGND VNB VPB VPWR X
.ends

* Black-box entry subcircuit for sky130_fd_sc_hd__mux2_2 abstract view
.subckt sky130_fd_sc_hd__mux2_2 A0 A1 S VGND VNB VPB VPWR X
.ends

* Black-box entry subcircuit for sky130_fd_sc_hd__o221a_1 abstract view
.subckt sky130_fd_sc_hd__o221a_1 A1 A2 B1 B2 C1 VGND VNB VPB VPWR X
.ends

* Black-box entry subcircuit for sky130_fd_sc_hd__o21ai_1 abstract view
.subckt sky130_fd_sc_hd__o21ai_1 A1 A2 B1 VGND VNB VPB VPWR Y
.ends

* Black-box entry subcircuit for sky130_fd_sc_hd__nor2_1 abstract view
.subckt sky130_fd_sc_hd__nor2_1 A B VGND VNB VPB VPWR Y
.ends

* Black-box entry subcircuit for sky130_fd_sc_hd__o22a_1 abstract view
.subckt sky130_fd_sc_hd__o22a_1 A1 A2 B1 B2 VGND VNB VPB VPWR X
.ends

* Black-box entry subcircuit for sky130_fd_sc_hd__a21o_1 abstract view
.subckt sky130_fd_sc_hd__a21o_1 A1 A2 B1 VGND VNB VPB VPWR X
.ends

* Black-box entry subcircuit for sky130_fd_sc_hd__nor2_2 abstract view
.subckt sky130_fd_sc_hd__nor2_2 A B VGND VNB VPB VPWR Y
.ends

* Black-box entry subcircuit for sky130_fd_sc_hd__a21bo_1 abstract view
.subckt sky130_fd_sc_hd__a21bo_1 A1 A2 B1_N VGND VNB VPB VPWR X
.ends

* Black-box entry subcircuit for sky130_fd_sc_hd__a31o_4 abstract view
.subckt sky130_fd_sc_hd__a31o_4 A1 A2 A3 B1 VGND VNB VPB VPWR X
.ends

* Black-box entry subcircuit for sky130_fd_sc_hd__and3_1 abstract view
.subckt sky130_fd_sc_hd__and3_1 A B C VGND VNB VPB VPWR X
.ends

* Black-box entry subcircuit for sky130_fd_sc_hd__clkbuf_4 abstract view
.subckt sky130_fd_sc_hd__clkbuf_4 A VGND VNB VPB VPWR X
.ends

* Black-box entry subcircuit for sky130_fd_sc_hd__dfxtp_2 abstract view
.subckt sky130_fd_sc_hd__dfxtp_2 CLK D VGND VNB VPB VPWR Q
.ends

* Black-box entry subcircuit for sky130_fd_sc_hd__nor3_2 abstract view
.subckt sky130_fd_sc_hd__nor3_2 A B C VGND VNB VPB VPWR Y
.ends

* Black-box entry subcircuit for sky130_fd_sc_hd__nor3_4 abstract view
.subckt sky130_fd_sc_hd__nor3_4 A B C VGND VNB VPB VPWR Y
.ends

* Black-box entry subcircuit for sky130_fd_sc_hd__buf_6 abstract view
.subckt sky130_fd_sc_hd__buf_6 A VGND VNB VPB VPWR X
.ends

* Black-box entry subcircuit for sky130_fd_sc_hd__nor4_2 abstract view
.subckt sky130_fd_sc_hd__nor4_2 A B C D VGND VNB VPB VPWR Y
.ends

* Black-box entry subcircuit for sky130_fd_sc_hd__dlymetal6s2s_1 abstract view
.subckt sky130_fd_sc_hd__dlymetal6s2s_1 A VGND VNB VPB VPWR X
.ends

* Black-box entry subcircuit for sky130_fd_sc_hd__a221o_1 abstract view
.subckt sky130_fd_sc_hd__a221o_1 A1 A2 B1 B2 C1 VGND VNB VPB VPWR X
.ends

* Black-box entry subcircuit for sky130_fd_sc_hd__clkbuf_8 abstract view
.subckt sky130_fd_sc_hd__clkbuf_8 A VGND VNB VPB VPWR X
.ends

* Black-box entry subcircuit for sky130_fd_sc_hd__mux2_8 abstract view
.subckt sky130_fd_sc_hd__mux2_8 A0 A1 S VGND VNB VPB VPWR X
.ends

* Black-box entry subcircuit for sky130_fd_sc_hd__a2bb2oi_1 abstract view
.subckt sky130_fd_sc_hd__a2bb2oi_1 A1_N A2_N B1 B2 VGND VNB VPB VPWR Y
.ends

* Black-box entry subcircuit for sky130_fd_sc_hd__a2bb2o_1 abstract view
.subckt sky130_fd_sc_hd__a2bb2o_1 A1_N A2_N B1 B2 VGND VNB VPB VPWR X
.ends

* Black-box entry subcircuit for sky130_fd_sc_hd__or3_1 abstract view
.subckt sky130_fd_sc_hd__or3_1 A B C VGND VNB VPB VPWR X
.ends

* Black-box entry subcircuit for sky130_fd_sc_hd__mux2_4 abstract view
.subckt sky130_fd_sc_hd__mux2_4 A0 A1 S VGND VNB VPB VPWR X
.ends

* Black-box entry subcircuit for sky130_fd_sc_hd__or2_1 abstract view
.subckt sky130_fd_sc_hd__or2_1 A B VGND VNB VPB VPWR X
.ends

* Black-box entry subcircuit for sky130_fd_sc_hd__nand2_1 abstract view
.subckt sky130_fd_sc_hd__nand2_1 A B VGND VNB VPB VPWR Y
.ends

* Black-box entry subcircuit for sky130_fd_sc_hd__or3_4 abstract view
.subckt sky130_fd_sc_hd__or3_4 A B C VGND VNB VPB VPWR X
.ends

* Black-box entry subcircuit for sky130_fd_sc_hd__dfxtp_4 abstract view
.subckt sky130_fd_sc_hd__dfxtp_4 CLK D VGND VNB VPB VPWR Q
.ends

.subckt cic_con io_ack_o io_adr_i[0] io_adr_i[10] io_adr_i[11] io_adr_i[1] io_adr_i[2]
+ io_adr_i[3] io_adr_i[4] io_adr_i[5] io_adr_i[6] io_adr_i[7] io_adr_i[8] io_adr_i[9]
+ io_b_adr_i[0] io_b_adr_i[1] io_b_cs_i_0 io_b_cs_i_1 io_b_cs_i_10 io_b_cs_i_2 io_b_cs_i_3
+ io_b_cs_i_4 io_b_cs_i_5 io_b_cs_i_6 io_b_cs_i_7 io_b_cs_i_8 io_b_cs_i_9 io_b_dat_i[0]
+ io_b_dat_i[10] io_b_dat_i[11] io_b_dat_i[12] io_b_dat_i[13] io_b_dat_i[14] io_b_dat_i[15]
+ io_b_dat_i[1] io_b_dat_i[2] io_b_dat_i[3] io_b_dat_i[4] io_b_dat_i[5] io_b_dat_i[6]
+ io_b_dat_i[7] io_b_dat_i[8] io_b_dat_i[9] io_b_dat_o_0[0] io_b_dat_o_0[10] io_b_dat_o_0[11]
+ io_b_dat_o_0[12] io_b_dat_o_0[13] io_b_dat_o_0[14] io_b_dat_o_0[15] io_b_dat_o_0[1]
+ io_b_dat_o_0[2] io_b_dat_o_0[3] io_b_dat_o_0[4] io_b_dat_o_0[5] io_b_dat_o_0[6]
+ io_b_dat_o_0[7] io_b_dat_o_0[8] io_b_dat_o_0[9] io_b_dat_o_10[0] io_b_dat_o_10[10]
+ io_b_dat_o_10[11] io_b_dat_o_10[12] io_b_dat_o_10[13] io_b_dat_o_10[14] io_b_dat_o_10[15]
+ io_b_dat_o_10[1] io_b_dat_o_10[2] io_b_dat_o_10[3] io_b_dat_o_10[4] io_b_dat_o_10[5]
+ io_b_dat_o_10[6] io_b_dat_o_10[7] io_b_dat_o_10[8] io_b_dat_o_10[9] io_b_dat_o_1[0]
+ io_b_dat_o_1[10] io_b_dat_o_1[11] io_b_dat_o_1[12] io_b_dat_o_1[13] io_b_dat_o_1[14]
+ io_b_dat_o_1[15] io_b_dat_o_1[1] io_b_dat_o_1[2] io_b_dat_o_1[3] io_b_dat_o_1[4]
+ io_b_dat_o_1[5] io_b_dat_o_1[6] io_b_dat_o_1[7] io_b_dat_o_1[8] io_b_dat_o_1[9]
+ io_b_dat_o_2[0] io_b_dat_o_2[10] io_b_dat_o_2[11] io_b_dat_o_2[12] io_b_dat_o_2[13]
+ io_b_dat_o_2[14] io_b_dat_o_2[15] io_b_dat_o_2[1] io_b_dat_o_2[2] io_b_dat_o_2[3]
+ io_b_dat_o_2[4] io_b_dat_o_2[5] io_b_dat_o_2[6] io_b_dat_o_2[7] io_b_dat_o_2[8]
+ io_b_dat_o_2[9] io_b_dat_o_3[0] io_b_dat_o_3[10] io_b_dat_o_3[11] io_b_dat_o_3[12]
+ io_b_dat_o_3[13] io_b_dat_o_3[14] io_b_dat_o_3[15] io_b_dat_o_3[1] io_b_dat_o_3[2]
+ io_b_dat_o_3[3] io_b_dat_o_3[4] io_b_dat_o_3[5] io_b_dat_o_3[6] io_b_dat_o_3[7]
+ io_b_dat_o_3[8] io_b_dat_o_3[9] io_b_dat_o_4[0] io_b_dat_o_4[10] io_b_dat_o_4[11]
+ io_b_dat_o_4[12] io_b_dat_o_4[13] io_b_dat_o_4[14] io_b_dat_o_4[15] io_b_dat_o_4[1]
+ io_b_dat_o_4[2] io_b_dat_o_4[3] io_b_dat_o_4[4] io_b_dat_o_4[5] io_b_dat_o_4[6]
+ io_b_dat_o_4[7] io_b_dat_o_4[8] io_b_dat_o_4[9] io_b_dat_o_5[0] io_b_dat_o_5[10]
+ io_b_dat_o_5[11] io_b_dat_o_5[12] io_b_dat_o_5[13] io_b_dat_o_5[14] io_b_dat_o_5[15]
+ io_b_dat_o_5[1] io_b_dat_o_5[2] io_b_dat_o_5[3] io_b_dat_o_5[4] io_b_dat_o_5[5]
+ io_b_dat_o_5[6] io_b_dat_o_5[7] io_b_dat_o_5[8] io_b_dat_o_5[9] io_b_dat_o_6[0]
+ io_b_dat_o_6[10] io_b_dat_o_6[11] io_b_dat_o_6[12] io_b_dat_o_6[13] io_b_dat_o_6[14]
+ io_b_dat_o_6[15] io_b_dat_o_6[1] io_b_dat_o_6[2] io_b_dat_o_6[3] io_b_dat_o_6[4]
+ io_b_dat_o_6[5] io_b_dat_o_6[6] io_b_dat_o_6[7] io_b_dat_o_6[8] io_b_dat_o_6[9]
+ io_b_dat_o_7[0] io_b_dat_o_7[10] io_b_dat_o_7[11] io_b_dat_o_7[12] io_b_dat_o_7[13]
+ io_b_dat_o_7[14] io_b_dat_o_7[15] io_b_dat_o_7[1] io_b_dat_o_7[2] io_b_dat_o_7[3]
+ io_b_dat_o_7[4] io_b_dat_o_7[5] io_b_dat_o_7[6] io_b_dat_o_7[7] io_b_dat_o_7[8]
+ io_b_dat_o_7[9] io_b_dat_o_8[0] io_b_dat_o_8[10] io_b_dat_o_8[11] io_b_dat_o_8[12]
+ io_b_dat_o_8[13] io_b_dat_o_8[14] io_b_dat_o_8[15] io_b_dat_o_8[1] io_b_dat_o_8[2]
+ io_b_dat_o_8[3] io_b_dat_o_8[4] io_b_dat_o_8[5] io_b_dat_o_8[6] io_b_dat_o_8[7]
+ io_b_dat_o_8[8] io_b_dat_o_8[9] io_b_dat_o_9[0] io_b_dat_o_9[10] io_b_dat_o_9[11]
+ io_b_dat_o_9[12] io_b_dat_o_9[13] io_b_dat_o_9[14] io_b_dat_o_9[15] io_b_dat_o_9[1]
+ io_b_dat_o_9[2] io_b_dat_o_9[3] io_b_dat_o_9[4] io_b_dat_o_9[5] io_b_dat_o_9[6]
+ io_b_dat_o_9[7] io_b_dat_o_9[8] io_b_dat_o_9[9] io_b_we_i io_cs_i io_dat_i[0] io_dat_i[10]
+ io_dat_i[11] io_dat_i[12] io_dat_i[13] io_dat_i[14] io_dat_i[15] io_dat_i[16] io_dat_i[17]
+ io_dat_i[18] io_dat_i[19] io_dat_i[1] io_dat_i[20] io_dat_i[21] io_dat_i[22] io_dat_i[23]
+ io_dat_i[24] io_dat_i[25] io_dat_i[26] io_dat_i[27] io_dat_i[28] io_dat_i[29] io_dat_i[2]
+ io_dat_i[30] io_dat_i[31] io_dat_i[3] io_dat_i[4] io_dat_i[5] io_dat_i[6] io_dat_i[7]
+ io_dat_i[8] io_dat_i[9] io_dat_o[0] io_dat_o[10] io_dat_o[11] io_dat_o[12] io_dat_o[13]
+ io_dat_o[14] io_dat_o[15] io_dat_o[16] io_dat_o[17] io_dat_o[18] io_dat_o[19] io_dat_o[1]
+ io_dat_o[20] io_dat_o[21] io_dat_o[22] io_dat_o[23] io_dat_o[24] io_dat_o[25] io_dat_o[26]
+ io_dat_o[27] io_dat_o[28] io_dat_o[29] io_dat_o[2] io_dat_o[30] io_dat_o[31] io_dat_o[3]
+ io_dat_o[4] io_dat_o[5] io_dat_o[6] io_dat_o[7] io_dat_o[8] io_dat_o[9] io_dataLastBlock[0]
+ io_dataLastBlock[10] io_dataLastBlock[11] io_dataLastBlock[12] io_dataLastBlock[13]
+ io_dataLastBlock[14] io_dataLastBlock[15] io_dataLastBlock[16] io_dataLastBlock[17]
+ io_dataLastBlock[18] io_dataLastBlock[19] io_dataLastBlock[1] io_dataLastBlock[20]
+ io_dataLastBlock[21] io_dataLastBlock[22] io_dataLastBlock[23] io_dataLastBlock[24]
+ io_dataLastBlock[25] io_dataLastBlock[26] io_dataLastBlock[27] io_dataLastBlock[28]
+ io_dataLastBlock[29] io_dataLastBlock[2] io_dataLastBlock[30] io_dataLastBlock[31]
+ io_dataLastBlock[32] io_dataLastBlock[33] io_dataLastBlock[34] io_dataLastBlock[35]
+ io_dataLastBlock[36] io_dataLastBlock[37] io_dataLastBlock[38] io_dataLastBlock[39]
+ io_dataLastBlock[3] io_dataLastBlock[40] io_dataLastBlock[41] io_dataLastBlock[42]
+ io_dataLastBlock[43] io_dataLastBlock[44] io_dataLastBlock[45] io_dataLastBlock[46]
+ io_dataLastBlock[47] io_dataLastBlock[48] io_dataLastBlock[49] io_dataLastBlock[4]
+ io_dataLastBlock[50] io_dataLastBlock[51] io_dataLastBlock[52] io_dataLastBlock[53]
+ io_dataLastBlock[54] io_dataLastBlock[55] io_dataLastBlock[56] io_dataLastBlock[57]
+ io_dataLastBlock[58] io_dataLastBlock[59] io_dataLastBlock[5] io_dataLastBlock[60]
+ io_dataLastBlock[61] io_dataLastBlock[62] io_dataLastBlock[63] io_dataLastBlock[6]
+ io_dataLastBlock[7] io_dataLastBlock[8] io_dataLastBlock[9] io_dsi_in[0] io_dsi_in[1]
+ io_dsi_in[2] io_dsi_in[3] io_dsi_in[4] io_dsi_in[5] io_dsi_in[6] io_dsi_in[7] io_dsi_o
+ io_irq io_vout[0] io_vout[10] io_vout[1] io_vout[2] io_vout[3] io_vout[4] io_vout[5]
+ io_vout[6] io_vout[7] io_vout[8] io_vout[9] io_we_i wb_clk_i wb_rst_i vccd1 vssd1
XFILLER_79_391 vssd1 vssd1 vccd1 vccd1 sky130_fd_sc_hd__decap_3
X_3155_ _3677_/Q _3661_/Q _3645_/Q _3621_/Q _3370_/S0 _3372_/S1 vssd1 vssd1 vccd1
+ vccd1 _3155_/X sky130_fd_sc_hd__mux4_2
X_3086_ _2899_/Y _2900_/Y _2897_/Y _2898_/Y _3102_/S0 _3148_/X vssd1 vssd1 vccd1 vccd1
+ _3086_/X sky130_fd_sc_hd__mux4_2
X_2106_ _3700_/Q _2100_/X _1879_/X _2101_/X vssd1 vssd1 vccd1 vccd1 _3700_/D sky130_fd_sc_hd__a22o_1
XFILLER_39_299 vssd1 vssd1 vccd1 vccd1 sky130_fd_sc_hd__decap_4
X_2037_ _3743_/Q _2030_/A _1891_/X _2031_/A vssd1 vssd1 vccd1 vccd1 _3743_/D sky130_fd_sc_hd__a22o_1
XFILLER_82_589 vssd1 vssd1 vccd1 vccd1 sky130_fd_sc_hd__decap_4
XFILLER_23_612 vssd1 vssd1 vccd1 vccd1 sky130_fd_sc_hd__decap_12
XFILLER_50_420 vssd1 vssd1 vccd1 vccd1 sky130_fd_sc_hd__decap_4
XFILLER_52_18 vssd1 vssd1 vccd1 vccd1 sky130_fd_sc_hd__decap_3
XFILLER_10_306 vssd1 vssd1 vccd1 vccd1 sky130_fd_sc_hd__fill_2
XFILLER_10_339 vssd1 vssd1 vccd1 vccd1 sky130_fd_sc_hd__decap_3
X_2939_ _3449_/Q vssd1 vssd1 vccd1 vccd1 _2939_/Y sky130_fd_sc_hd__inv_2
XFILLER_89_144 vssd1 vssd1 vccd1 vccd1 sky130_fd_sc_hd__decap_4
XFILLER_77_59 vssd1 vssd1 vccd1 vccd1 sky130_fd_sc_hd__decap_12
XFILLER_58_564 vssd1 vssd1 vccd1 vccd1 sky130_fd_sc_hd__decap_6
XFILLER_85_372 vssd1 vssd1 vccd1 vccd1 sky130_fd_sc_hd__decap_12
XFILLER_73_512 vssd1 vssd1 vccd1 vccd1 sky130_fd_sc_hd__decap_12
XFILLER_45_258 vssd1 vssd1 vccd1 vccd1 sky130_fd_sc_hd__decap_8
XFILLER_53_291 vssd1 vssd1 vccd1 vccd1 sky130_fd_sc_hd__decap_4
XFILLER_13_144 vssd1 vssd1 vccd1 vccd1 sky130_fd_sc_hd__decap_8
XFILLER_13_188 vssd1 vssd1 vccd1 vccd1 sky130_fd_sc_hd__decap_4
XFILLER_13_177 vssd1 vssd1 vccd1 vccd1 sky130_fd_sc_hd__decap_6
XFILLER_41_486 vssd1 vssd1 vccd1 vccd1 sky130_fd_sc_hd__decap_8
XFILLER_3_78 vssd1 vssd1 vccd1 vccd1 sky130_fd_sc_hd__decap_8
XFILLER_64_501 vssd1 vssd1 vccd1 vccd1 sky130_fd_sc_hd__decap_12
Xclkbuf_leaf_60_wb_clk_i clkbuf_3_0_0_wb_clk_i/X vssd1 vssd1 vccd1 vccd1 _3859_/CLK
+ sky130_fd_sc_hd__clkbuf_16
XFILLER_76_372 vssd1 vssd1 vccd1 vccd1 sky130_fd_sc_hd__decap_4
XFILLER_36_203 vssd1 vssd1 vccd1 vccd1 sky130_fd_sc_hd__decap_4
XFILLER_49_597 vssd1 vssd1 vccd1 vccd1 sky130_fd_sc_hd__fill_2
XFILLER_91_353 vssd1 vssd1 vccd1 vccd1 sky130_fd_sc_hd__decap_4
XFILLER_36_236 vssd1 vssd1 vccd1 vccd1 sky130_fd_sc_hd__decap_4
XFILLER_17_494 vssd1 vssd1 vccd1 vccd1 sky130_fd_sc_hd__fill_2
X_3842_ _3845_/CLK _3842_/D vssd1 vssd1 vccd1 vccd1 _3842_/Q sky130_fd_sc_hd__dfxtp_1
X_3773_ _3773_/CLK _3773_/D vssd1 vssd1 vccd1 vccd1 _3773_/Q sky130_fd_sc_hd__dfxtp_1
X_2724_ _2836_/A _2724_/B vssd1 vssd1 vccd1 vccd1 _2724_/X sky130_fd_sc_hd__and2_1
X_2655_ _2661_/A _2969_/X vssd1 vssd1 vccd1 vccd1 _2655_/X sky130_fd_sc_hd__and2_1
X_2586_ _3403_/Q _2583_/X _2540_/X _2584_/X vssd1 vssd1 vccd1 vccd1 _3403_/D sky130_fd_sc_hd__a22o_1
XFILLER_47_18 vssd1 vssd1 vccd1 vccd1 sky130_fd_sc_hd__decap_8
X_3207_ _3403_/Q _3395_/Q _3387_/Q _3627_/Q _3860_/Q _3861_/Q vssd1 vssd1 vccd1 vccd1
+ _3207_/X sky130_fd_sc_hd__mux4_2
XFILLER_55_501 vssd1 vssd1 vccd1 vccd1 sky130_fd_sc_hd__fill_1
XFILLER_67_383 vssd1 vssd1 vccd1 vccd1 sky130_fd_sc_hd__decap_4
XFILLER_67_372 vssd1 vssd1 vccd1 vccd1 sky130_fd_sc_hd__decap_4
X_3138_ _3134_/X _3135_/X _3136_/X _3137_/X _3862_/Q _3863_/Q vssd1 vssd1 vccd1 vccd1
+ _3138_/X sky130_fd_sc_hd__mux4_2
XFILLER_55_523 vssd1 vssd1 vccd1 vccd1 sky130_fd_sc_hd__decap_4
XFILLER_55_534 vssd1 vssd1 vccd1 vccd1 sky130_fd_sc_hd__decap_8
XFILLER_27_258 vssd1 vssd1 vccd1 vccd1 sky130_fd_sc_hd__decap_12
XFILLER_55_567 vssd1 vssd1 vccd1 vccd1 sky130_fd_sc_hd__fill_1
X_3069_ _2642_/X _3223_/X _3858_/Q vssd1 vssd1 vccd1 vccd1 _3069_/X sky130_fd_sc_hd__mux2_1
XFILLER_82_375 vssd1 vssd1 vccd1 vccd1 sky130_fd_sc_hd__decap_12
XPHY_927 vssd1 vccd1 sky130_fd_sc_hd__tapvpwrvgnd_1
XPHY_916 vssd1 vccd1 sky130_fd_sc_hd__tapvpwrvgnd_1
XPHY_905 vssd1 vccd1 sky130_fd_sc_hd__tapvpwrvgnd_1
XPHY_949 vssd1 vccd1 sky130_fd_sc_hd__tapvpwrvgnd_1
XPHY_938 vssd1 vccd1 sky130_fd_sc_hd__tapvpwrvgnd_1
XFILLER_23_464 vssd1 vssd1 vccd1 vccd1 sky130_fd_sc_hd__fill_1
XFILLER_23_486 vssd1 vssd1 vccd1 vccd1 sky130_fd_sc_hd__decap_4
XFILLER_10_158 vssd1 vssd1 vccd1 vccd1 sky130_fd_sc_hd__decap_12
XFILLER_88_58 vssd1 vssd1 vccd1 vccd1 sky130_fd_sc_hd__decap_4
XFILLER_2_379 vssd1 vssd1 vccd1 vccd1 sky130_fd_sc_hd__decap_4
XFILLER_46_534 vssd1 vssd1 vccd1 vccd1 sky130_fd_sc_hd__decap_12
XFILLER_33_217 vssd1 vssd1 vccd1 vccd1 sky130_fd_sc_hd__decap_4
XFILLER_53_50 vssd1 vssd1 vccd1 vccd1 sky130_fd_sc_hd__decap_4
XFILLER_14_486 vssd1 vssd1 vccd1 vccd1 sky130_fd_sc_hd__decap_12
XFILLER_53_83 vssd1 vssd1 vccd1 vccd1 sky130_fd_sc_hd__decap_3
X_2440_ _3499_/Q _2435_/X _2328_/X _2437_/X vssd1 vssd1 vccd1 vccd1 _3499_/D sky130_fd_sc_hd__a22o_1
XFILLER_52_6 vssd1 vssd1 vccd1 vccd1 sky130_fd_sc_hd__decap_12
X_2371_ _3548_/Q _2367_/X _2326_/X _2369_/X vssd1 vssd1 vccd1 vccd1 _3548_/D sky130_fd_sc_hd__a22o_1
XFILLER_83_139 vssd1 vssd1 vccd1 vccd1 sky130_fd_sc_hd__decap_4
XFILLER_37_534 vssd1 vssd1 vccd1 vccd1 sky130_fd_sc_hd__decap_8
XFILLER_49_372 vssd1 vssd1 vccd1 vccd1 sky130_fd_sc_hd__decap_4
XFILLER_37_556 vssd1 vssd1 vccd1 vccd1 sky130_fd_sc_hd__decap_4
XFILLER_52_537 vssd1 vssd1 vccd1 vccd1 sky130_fd_sc_hd__decap_4
X_3825_ _3829_/CLK _3825_/D vssd1 vssd1 vccd1 vccd1 _3825_/Q sky130_fd_sc_hd__dfxtp_1
X_3756_ _3826_/CLK _3756_/D vssd1 vssd1 vccd1 vccd1 _3756_/Q sky130_fd_sc_hd__dfxtp_1
X_2707_ _3800_/Q vssd1 vssd1 vccd1 vccd1 _2707_/Y sky130_fd_sc_hd__inv_2
X_3687_ _3687_/CLK _3687_/D vssd1 vssd1 vccd1 vccd1 _3687_/Q sky130_fd_sc_hd__dfxtp_1
X_2638_ _2638_/A _2975_/X vssd1 vssd1 vccd1 vccd1 _2638_/X sky130_fd_sc_hd__and2_1
X_2569_ _3416_/Q _2563_/X _2546_/X _2564_/X vssd1 vssd1 vccd1 vccd1 _3416_/D sky130_fd_sc_hd__a22o_1
XINSDIODE2_4 _3055_/X vssd1 vssd1 vccd1 vccd1 sky130_fd_sc_hd__diode_2
Xoutput297 _2942_/X vssd1 vssd1 vccd1 vccd1 io_b_adr_i[0] sky130_fd_sc_hd__clkbuf_2
XFILLER_67_191 vssd1 vssd1 vccd1 vccd1 sky130_fd_sc_hd__decap_8
XFILLER_28_534 vssd1 vssd1 vccd1 vccd1 sky130_fd_sc_hd__decap_4
XFILLER_55_342 vssd1 vssd1 vccd1 vccd1 sky130_fd_sc_hd__decap_4
XFILLER_43_504 vssd1 vssd1 vccd1 vccd1 sky130_fd_sc_hd__decap_4
XFILLER_43_526 vssd1 vssd1 vccd1 vccd1 sky130_fd_sc_hd__decap_8
XFILLER_55_364 vssd1 vssd1 vccd1 vccd1 sky130_fd_sc_hd__decap_6
XFILLER_82_172 vssd1 vssd1 vccd1 vccd1 sky130_fd_sc_hd__decap_4
XPHY_702 vssd1 vccd1 sky130_fd_sc_hd__tapvpwrvgnd_1
XPHY_713 vssd1 vccd1 sky130_fd_sc_hd__tapvpwrvgnd_1
XPHY_724 vssd1 vccd1 sky130_fd_sc_hd__tapvpwrvgnd_1
XPHY_735 vssd1 vccd1 sky130_fd_sc_hd__tapvpwrvgnd_1
XFILLER_90_48 vssd1 vssd1 vccd1 vccd1 sky130_fd_sc_hd__decap_8
XPHY_746 vssd1 vccd1 sky130_fd_sc_hd__tapvpwrvgnd_1
XPHY_757 vssd1 vccd1 sky130_fd_sc_hd__tapvpwrvgnd_1
XPHY_768 vssd1 vccd1 sky130_fd_sc_hd__tapvpwrvgnd_1
XPHY_779 vssd1 vccd1 sky130_fd_sc_hd__tapvpwrvgnd_1
XFILLER_11_467 vssd1 vssd1 vccd1 vccd1 sky130_fd_sc_hd__fill_1
XFILLER_3_600 vssd1 vssd1 vccd1 vccd1 sky130_fd_sc_hd__decap_12
XFILLER_2_110 vssd1 vssd1 vccd1 vccd1 sky130_fd_sc_hd__decap_4
XFILLER_48_94 vssd1 vssd1 vccd1 vccd1 sky130_fd_sc_hd__decap_12
XFILLER_0_13 vssd1 vssd1 vccd1 vccd1 sky130_fd_sc_hd__decap_4
XFILLER_58_180 vssd1 vssd1 vccd1 vccd1 sky130_fd_sc_hd__decap_12
XFILLER_0_46 vssd1 vssd1 vccd1 vccd1 sky130_fd_sc_hd__decap_4
XFILLER_19_589 vssd1 vssd1 vccd1 vccd1 sky130_fd_sc_hd__decap_8
XFILLER_64_93 vssd1 vssd1 vccd1 vccd1 sky130_fd_sc_hd__decap_12
X_1940_ _2583_/A vssd1 vssd1 vccd1 vccd1 _1940_/X sky130_fd_sc_hd__buf_2
XFILLER_14_261 vssd1 vssd1 vccd1 vccd1 sky130_fd_sc_hd__fill_2
XFILLER_9_77 vssd1 vssd1 vccd1 vccd1 sky130_fd_sc_hd__decap_8
X_1871_ _3817_/Q _1860_/X _1829_/X _1863_/X vssd1 vssd1 vccd1 vccd1 _3817_/D sky130_fd_sc_hd__a22o_1
X_3610_ _3682_/CLK _3610_/D vssd1 vssd1 vccd1 vccd1 _3610_/Q sky130_fd_sc_hd__dfxtp_1
XFILLER_9_99 vssd1 vssd1 vccd1 vccd1 sky130_fd_sc_hd__fill_2
X_3541_ _3817_/CLK _3541_/D vssd1 vssd1 vccd1 vccd1 _3541_/Q sky130_fd_sc_hd__dfxtp_1
X_3472_ _3826_/CLK _3472_/D vssd1 vssd1 vccd1 vccd1 _3472_/Q sky130_fd_sc_hd__dfxtp_1
X_2423_ _3510_/Q _2416_/A _2364_/X _2417_/A vssd1 vssd1 vccd1 vccd1 _3510_/D sky130_fd_sc_hd__a22o_1
X_2354_ _2949_/A vssd1 vssd1 vccd1 vccd1 _2354_/X sky130_fd_sc_hd__clkbuf_2
XFILLER_57_618 vssd1 vssd1 vccd1 vccd1 sky130_fd_sc_hd__decap_6
X_2285_ _3597_/Q _2282_/X _2155_/X _2284_/X vssd1 vssd1 vccd1 vccd1 _3597_/D sky130_fd_sc_hd__a22o_1
XFILLER_92_492 vssd1 vssd1 vccd1 vccd1 sky130_fd_sc_hd__decap_4
XFILLER_64_172 vssd1 vssd1 vccd1 vccd1 sky130_fd_sc_hd__decap_4
XFILLER_52_378 vssd1 vssd1 vccd1 vccd1 sky130_fd_sc_hd__decap_4
XFILLER_20_264 vssd1 vssd1 vccd1 vccd1 sky130_fd_sc_hd__fill_1
X_3808_ _3811_/CLK _3808_/D vssd1 vssd1 vccd1 vccd1 _3808_/Q sky130_fd_sc_hd__dfxtp_1
XFILLER_20_286 vssd1 vssd1 vccd1 vccd1 sky130_fd_sc_hd__decap_4
X_3739_ _3831_/CLK _3739_/D vssd1 vssd1 vccd1 vccd1 _3739_/Q sky130_fd_sc_hd__dfxtp_1
XFILLER_4_408 vssd1 vssd1 vccd1 vccd1 sky130_fd_sc_hd__fill_2
XFILLER_69_49 vssd1 vssd1 vccd1 vccd1 sky130_fd_sc_hd__decap_4
XFILLER_0_614 vssd1 vssd1 vccd1 vccd1 sky130_fd_sc_hd__fill_1
XFILLER_48_618 vssd1 vssd1 vccd1 vccd1 sky130_fd_sc_hd__decap_6
XFILLER_85_59 vssd1 vssd1 vccd1 vccd1 sky130_fd_sc_hd__decap_3
XFILLER_85_37 vssd1 vssd1 vccd1 vccd1 sky130_fd_sc_hd__decap_4
XFILLER_28_331 vssd1 vssd1 vccd1 vccd1 sky130_fd_sc_hd__decap_8
XFILLER_18_75 vssd1 vssd1 vccd1 vccd1 sky130_fd_sc_hd__decap_8
XFILLER_16_548 vssd1 vssd1 vccd1 vccd1 sky130_fd_sc_hd__fill_2
XFILLER_70_131 vssd1 vssd1 vccd1 vccd1 sky130_fd_sc_hd__decap_4
XPHY_510 vssd1 vccd1 sky130_fd_sc_hd__tapvpwrvgnd_1
XFILLER_43_367 vssd1 vssd1 vccd1 vccd1 sky130_fd_sc_hd__decap_4
XPHY_521 vssd1 vccd1 sky130_fd_sc_hd__tapvpwrvgnd_1
XPHY_532 vssd1 vccd1 sky130_fd_sc_hd__tapvpwrvgnd_1
XPHY_543 vssd1 vccd1 sky130_fd_sc_hd__tapvpwrvgnd_1
XFILLER_34_52 vssd1 vssd1 vccd1 vccd1 sky130_fd_sc_hd__decap_4
XFILLER_43_378 vssd1 vssd1 vccd1 vccd1 sky130_fd_sc_hd__fill_1
XPHY_1131 vssd1 vccd1 sky130_fd_sc_hd__tapvpwrvgnd_1
XPHY_1120 vssd1 vccd1 sky130_fd_sc_hd__tapvpwrvgnd_1
XFILLER_34_74 vssd1 vssd1 vccd1 vccd1 sky130_fd_sc_hd__decap_12
XPHY_554 vssd1 vccd1 sky130_fd_sc_hd__tapvpwrvgnd_1
XPHY_565 vssd1 vccd1 sky130_fd_sc_hd__tapvpwrvgnd_1
XPHY_576 vssd1 vccd1 sky130_fd_sc_hd__tapvpwrvgnd_1
XPHY_587 vssd1 vccd1 sky130_fd_sc_hd__tapvpwrvgnd_1
XPHY_1175 vssd1 vccd1 sky130_fd_sc_hd__tapvpwrvgnd_1
XPHY_1164 vssd1 vccd1 sky130_fd_sc_hd__tapvpwrvgnd_1
XPHY_1153 vssd1 vccd1 sky130_fd_sc_hd__tapvpwrvgnd_1
XPHY_1142 vssd1 vccd1 sky130_fd_sc_hd__tapvpwrvgnd_1
XFILLER_7_213 vssd1 vssd1 vccd1 vccd1 sky130_fd_sc_hd__decap_12
XPHY_598 vssd1 vccd1 sky130_fd_sc_hd__tapvpwrvgnd_1
XPHY_1186 vssd1 vccd1 sky130_fd_sc_hd__tapvpwrvgnd_1
XFILLER_93_201 vssd1 vssd1 vccd1 vccd1 sky130_fd_sc_hd__fill_2
XFILLER_78_286 vssd1 vssd1 vccd1 vccd1 sky130_fd_sc_hd__decap_4
XFILLER_78_264 vssd1 vssd1 vccd1 vccd1 sky130_fd_sc_hd__decap_4
X_2070_ _3725_/Q _2067_/X _1861_/X _2069_/X vssd1 vssd1 vccd1 vccd1 _3725_/D sky130_fd_sc_hd__a22o_1
XFILLER_93_289 vssd1 vssd1 vccd1 vccd1 sky130_fd_sc_hd__fill_1
XFILLER_81_429 vssd1 vssd1 vccd1 vccd1 sky130_fd_sc_hd__decap_8
XFILLER_75_70 vssd1 vssd1 vccd1 vccd1 sky130_fd_sc_hd__decap_4
XFILLER_46_172 vssd1 vssd1 vccd1 vccd1 sky130_fd_sc_hd__decap_4
XFILLER_46_183 vssd1 vssd1 vccd1 vccd1 sky130_fd_sc_hd__decap_6
XFILLER_22_507 vssd1 vssd1 vccd1 vccd1 sky130_fd_sc_hd__decap_6
X_2972_ _2971_/X _2646_/X _2981_/S vssd1 vssd1 vccd1 vccd1 _2972_/X sky130_fd_sc_hd__mux2_1
XFILLER_91_80 vssd1 vssd1 vccd1 vccd1 sky130_fd_sc_hd__decap_6
X_1923_ _1972_/A vssd1 vssd1 vccd1 vccd1 _1923_/X sky130_fd_sc_hd__clkbuf_2
X_1854_ _1905_/B vssd1 vssd1 vccd1 vccd1 _1928_/B sky130_fd_sc_hd__inv_2
X_1785_ _1789_/A _3239_/X vssd1 vssd1 vccd1 vccd1 _3856_/D sky130_fd_sc_hd__and2_1
X_3524_ _3832_/CLK _3524_/D vssd1 vssd1 vccd1 vccd1 _3524_/Q sky130_fd_sc_hd__dfxtp_1
X_3455_ _3726_/CLK _3455_/D vssd1 vssd1 vccd1 vccd1 _3455_/Q sky130_fd_sc_hd__dfxtp_1
X_2406_ _3523_/Q _2401_/X _2328_/X _2403_/X vssd1 vssd1 vccd1 vccd1 _3523_/D sky130_fd_sc_hd__a22o_1
X_3386_ _3746_/CLK _3386_/D vssd1 vssd1 vccd1 vccd1 _3386_/Q sky130_fd_sc_hd__dfxtp_1
XFILLER_69_242 vssd1 vssd1 vccd1 vccd1 sky130_fd_sc_hd__decap_12
X_2337_ _3566_/Q _2333_/X _2297_/X _2334_/X vssd1 vssd1 vccd1 vccd1 _3566_/D sky130_fd_sc_hd__a22o_1
X_2268_ _3607_/Q _2257_/X _2267_/X _2259_/X vssd1 vssd1 vccd1 vccd1 _3607_/D sky130_fd_sc_hd__a22o_1
XFILLER_65_481 vssd1 vssd1 vccd1 vccd1 sky130_fd_sc_hd__decap_4
X_2199_ _3651_/Q _2197_/X _2138_/X _2198_/X vssd1 vssd1 vccd1 vccd1 _3651_/D sky130_fd_sc_hd__a22o_1
XFILLER_25_323 vssd1 vssd1 vccd1 vccd1 sky130_fd_sc_hd__decap_3
XFILLER_80_440 vssd1 vssd1 vccd1 vccd1 sky130_fd_sc_hd__decap_4
XFILLER_25_345 vssd1 vssd1 vccd1 vccd1 sky130_fd_sc_hd__fill_1
XFILLER_13_529 vssd1 vssd1 vccd1 vccd1 sky130_fd_sc_hd__decap_12
XFILLER_21_595 vssd1 vssd1 vccd1 vccd1 sky130_fd_sc_hd__decap_4
XFILLER_4_227 vssd1 vssd1 vccd1 vccd1 sky130_fd_sc_hd__fill_1
XFILLER_0_444 vssd1 vssd1 vccd1 vccd1 sky130_fd_sc_hd__decap_4
XFILLER_75_201 vssd1 vssd1 vccd1 vccd1 sky130_fd_sc_hd__decap_12
XFILLER_29_30 vssd1 vssd1 vccd1 vccd1 sky130_fd_sc_hd__decap_12
XFILLER_75_245 vssd1 vssd1 vccd1 vccd1 sky130_fd_sc_hd__decap_12
XFILLER_75_234 vssd1 vssd1 vccd1 vccd1 sky130_fd_sc_hd__decap_4
XFILLER_29_85 vssd1 vssd1 vccd1 vccd1 sky130_fd_sc_hd__fill_1
XFILLER_63_429 vssd1 vssd1 vccd1 vccd1 sky130_fd_sc_hd__decap_8
XFILLER_28_172 vssd1 vssd1 vccd1 vccd1 sky130_fd_sc_hd__decap_4
XFILLER_44_610 vssd1 vssd1 vccd1 vccd1 sky130_fd_sc_hd__fill_1
XFILLER_44_621 vssd1 vssd1 vccd1 vccd1 sky130_fd_sc_hd__decap_4
XFILLER_56_481 vssd1 vssd1 vccd1 vccd1 sky130_fd_sc_hd__decap_3
XFILLER_16_367 vssd1 vssd1 vccd1 vccd1 sky130_fd_sc_hd__decap_4
XFILLER_31_315 vssd1 vssd1 vccd1 vccd1 sky130_fd_sc_hd__decap_8
XPHY_351 vssd1 vccd1 sky130_fd_sc_hd__tapvpwrvgnd_1
XPHY_340 vssd1 vccd1 sky130_fd_sc_hd__tapvpwrvgnd_1
XFILLER_12_562 vssd1 vssd1 vccd1 vccd1 sky130_fd_sc_hd__decap_8
XPHY_362 vssd1 vccd1 sky130_fd_sc_hd__tapvpwrvgnd_1
XPHY_373 vssd1 vccd1 sky130_fd_sc_hd__tapvpwrvgnd_1
XPHY_384 vssd1 vccd1 sky130_fd_sc_hd__tapvpwrvgnd_1
XPHY_395 vssd1 vccd1 sky130_fd_sc_hd__tapvpwrvgnd_1
Xclkbuf_leaf_14_wb_clk_i clkbuf_3_2_0_wb_clk_i/X vssd1 vssd1 vccd1 vccd1 _3746_/CLK
+ sky130_fd_sc_hd__clkbuf_16
XFILLER_6_45 vssd1 vssd1 vccd1 vccd1 sky130_fd_sc_hd__decap_12
X_3240_ input17/X input49/X input65/X input81/X _2971_/S _2981_/S vssd1 vssd1 vccd1
+ vccd1 _3240_/X sky130_fd_sc_hd__mux4_1
X_3171_ _3594_/Q _3818_/Q _3546_/Q _3522_/Q _3292_/S0 _3292_/S1 vssd1 vssd1 vccd1
+ vccd1 _3171_/X sky130_fd_sc_hd__mux4_2
XFILLER_13_3 vssd1 vssd1 vccd1 vccd1 sky130_fd_sc_hd__decap_4
X_2122_ _3690_/Q _2116_/X _1869_/X _2118_/X vssd1 vssd1 vccd1 vccd1 _3690_/D sky130_fd_sc_hd__a22o_1
XFILLER_39_437 vssd1 vssd1 vccd1 vccd1 sky130_fd_sc_hd__decap_6
XFILLER_66_256 vssd1 vssd1 vccd1 vccd1 sky130_fd_sc_hd__decap_12
XFILLER_26_109 vssd1 vssd1 vccd1 vccd1 sky130_fd_sc_hd__decap_4
XFILLER_54_407 vssd1 vssd1 vccd1 vccd1 sky130_fd_sc_hd__decap_6
XFILLER_35_621 vssd1 vssd1 vccd1 vccd1 sky130_fd_sc_hd__decap_4
X_2053_ _3735_/Q _2050_/X _2017_/X _2051_/X vssd1 vssd1 vccd1 vccd1 _3735_/D sky130_fd_sc_hd__a22o_1
XFILLER_54_429 vssd1 vssd1 vccd1 vccd1 sky130_fd_sc_hd__decap_4
XFILLER_50_613 vssd1 vssd1 vccd1 vccd1 sky130_fd_sc_hd__decap_4
X_2955_ _2955_/A vssd1 vssd1 vccd1 vccd1 _2955_/X sky130_fd_sc_hd__clkbuf_1
X_2886_ _3814_/Q vssd1 vssd1 vccd1 vccd1 _2886_/Y sky130_fd_sc_hd__inv_2
X_1906_ _2476_/A _1977_/B _2065_/A _1915_/D vssd1 vssd1 vccd1 vccd1 _2553_/A sky130_fd_sc_hd__or4_4
X_1837_ _1972_/A vssd1 vssd1 vccd1 vccd1 _1837_/X sky130_fd_sc_hd__clkbuf_2
X_1768_ _1768_/A _3008_/X vssd1 vssd1 vccd1 vccd1 _3870_/D sky130_fd_sc_hd__nor2b_4
X_3507_ _3603_/CLK _3507_/D vssd1 vssd1 vccd1 vccd1 _3507_/Q sky130_fd_sc_hd__dfxtp_1
XFILLER_89_315 vssd1 vssd1 vccd1 vccd1 sky130_fd_sc_hd__decap_8
X_1699_ _3898_/Q _1680_/B _1681_/A _1707_/B vssd1 vssd1 vccd1 vccd1 _1699_/X sky130_fd_sc_hd__o211a_1
X_3438_ _3812_/CLK _3438_/D vssd1 vssd1 vccd1 vccd1 _3438_/Q sky130_fd_sc_hd__dfxtp_1