* NGSPICE file created from cic_block.ext - technology: sky130A

* Black-box entry subcircuit for sky130_fd_sc_hd__fill_1 abstract view
.subckt sky130_fd_sc_hd__fill_1 VGND VNB VPB VPWR
.ends

* Black-box entry subcircuit for sky130_fd_sc_hd__decap_12 abstract view
.subckt sky130_fd_sc_hd__decap_12 VGND VNB VPB VPWR
.ends

* Black-box entry subcircuit for sky130_fd_sc_hd__decap_4 abstract view
.subckt sky130_fd_sc_hd__decap_4 VGND VNB VPB VPWR
.ends

* Black-box entry subcircuit for sky130_fd_sc_hd__mux4_2 abstract view
.subckt sky130_fd_sc_hd__mux4_2 A0 A1 A2 A3 S0 S1 VGND VNB VPB VPWR X
.ends

* Black-box entry subcircuit for sky130_fd_sc_hd__mux2_1 abstract view
.subckt sky130_fd_sc_hd__mux2_1 A0 A1 S VGND VNB VPB VPWR X
.ends

* Black-box entry subcircuit for sky130_fd_sc_hd__fill_2 abstract view
.subckt sky130_fd_sc_hd__fill_2 VGND VNB VPB VPWR
.ends

* Black-box entry subcircuit for sky130_fd_sc_hd__decap_3 abstract view
.subckt sky130_fd_sc_hd__decap_3 VGND VNB VPB VPWR
.ends

* Black-box entry subcircuit for sky130_fd_sc_hd__a21o_1 abstract view
.subckt sky130_fd_sc_hd__a21o_1 A1 A2 B1 VGND VNB VPB VPWR X
.ends

* Black-box entry subcircuit for sky130_fd_sc_hd__decap_8 abstract view
.subckt sky130_fd_sc_hd__decap_8 VGND VNB VPB VPWR
.ends

* Black-box entry subcircuit for sky130_fd_sc_hd__a31oi_1 abstract view
.subckt sky130_fd_sc_hd__a31oi_1 A1 A2 A3 B1 VGND VNB VPB VPWR Y
.ends

* Black-box entry subcircuit for sky130_fd_sc_hd__nor2_4 abstract view
.subckt sky130_fd_sc_hd__nor2_4 A B VGND VNB VPB VPWR Y
.ends

* Black-box entry subcircuit for sky130_fd_sc_hd__nor2_2 abstract view
.subckt sky130_fd_sc_hd__nor2_2 A B VGND VNB VPB VPWR Y
.ends

* Black-box entry subcircuit for sky130_fd_sc_hd__decap_6 abstract view
.subckt sky130_fd_sc_hd__decap_6 VGND VNB VPB VPWR
.ends

* Black-box entry subcircuit for sky130_fd_sc_hd__nand3b_1 abstract view
.subckt sky130_fd_sc_hd__nand3b_1 A_N B C VGND VNB VPB VPWR Y
.ends

* Black-box entry subcircuit for sky130_fd_sc_hd__inv_2 abstract view
.subckt sky130_fd_sc_hd__inv_2 A VGND VNB VPB VPWR Y
.ends

* Black-box entry subcircuit for sky130_fd_sc_hd__clkbuf_2 abstract view
.subckt sky130_fd_sc_hd__clkbuf_2 A VGND VNB VPB VPWR X
.ends

* Black-box entry subcircuit for sky130_fd_sc_hd__nand2_1 abstract view
.subckt sky130_fd_sc_hd__nand2_1 A B VGND VNB VPB VPWR Y
.ends

* Black-box entry subcircuit for sky130_fd_sc_hd__dfxtp_1 abstract view
.subckt sky130_fd_sc_hd__dfxtp_1 CLK D VGND VNB VPB VPWR Q
.ends

* Black-box entry subcircuit for sky130_fd_sc_hd__nand3_4 abstract view
.subckt sky130_fd_sc_hd__nand3_4 A B C VGND VNB VPB VPWR Y
.ends

* Black-box entry subcircuit for sky130_fd_sc_hd__o2bb2ai_2 abstract view
.subckt sky130_fd_sc_hd__o2bb2ai_2 A1_N A2_N B1 B2 VGND VNB VPB VPWR Y
.ends

* Black-box entry subcircuit for sky130_fd_sc_hd__o211a_1 abstract view
.subckt sky130_fd_sc_hd__o211a_1 A1 A2 B1 C1 VGND VNB VPB VPWR X
.ends

* Black-box entry subcircuit for sky130_fd_sc_hd__tapvpwrvgnd_1 abstract view
.subckt sky130_fd_sc_hd__tapvpwrvgnd_1 VGND VPWR
.ends

* Black-box entry subcircuit for sky130_fd_sc_hd__a31o_1 abstract view
.subckt sky130_fd_sc_hd__a31o_1 A1 A2 A3 B1 VGND VNB VPB VPWR X
.ends

* Black-box entry subcircuit for sky130_fd_sc_hd__nor2b_1 abstract view
.subckt sky130_fd_sc_hd__nor2b_1 A B_N VGND VNB VPB VPWR Y
.ends

* Black-box entry subcircuit for sky130_fd_sc_hd__dfxtp_2 abstract view
.subckt sky130_fd_sc_hd__dfxtp_2 CLK D VGND VNB VPB VPWR Q
.ends

* Black-box entry subcircuit for sky130_fd_sc_hd__and4b_1 abstract view
.subckt sky130_fd_sc_hd__and4b_1 A_N B C D VGND VNB VPB VPWR X
.ends

* Black-box entry subcircuit for sky130_fd_sc_hd__o21ai_1 abstract view
.subckt sky130_fd_sc_hd__o21ai_1 A1 A2 B1 VGND VNB VPB VPWR Y
.ends

* Black-box entry subcircuit for sky130_fd_sc_hd__buf_1 abstract view
.subckt sky130_fd_sc_hd__buf_1 A VGND VNB VPB VPWR X
.ends

* Black-box entry subcircuit for sky130_fd_sc_hd__clkbuf_1 abstract view
.subckt sky130_fd_sc_hd__clkbuf_1 A VGND VNB VPB VPWR X
.ends

* Black-box entry subcircuit for sky130_fd_sc_hd__xnor2_1 abstract view
.subckt sky130_fd_sc_hd__xnor2_1 A B VGND VNB VPB VPWR Y
.ends

* Black-box entry subcircuit for sky130_fd_sc_hd__mux2_2 abstract view
.subckt sky130_fd_sc_hd__mux2_2 A0 A1 S VGND VNB VPB VPWR X
.ends

* Black-box entry subcircuit for sky130_fd_sc_hd__xor2_1 abstract view
.subckt sky130_fd_sc_hd__xor2_1 A B VGND VNB VPB VPWR X
.ends

* Black-box entry subcircuit for sky130_fd_sc_hd__nor2_1 abstract view
.subckt sky130_fd_sc_hd__nor2_1 A B VGND VNB VPB VPWR Y
.ends

* Black-box entry subcircuit for sky130_fd_sc_hd__a211oi_4 abstract view
.subckt sky130_fd_sc_hd__a211oi_4 A1 A2 B1 C1 VGND VNB VPB VPWR Y
.ends

* Black-box entry subcircuit for sky130_fd_sc_hd__xor2_4 abstract view
.subckt sky130_fd_sc_hd__xor2_4 A B VGND VNB VPB VPWR X
.ends

* Black-box entry subcircuit for sky130_fd_sc_hd__a31oi_4 abstract view
.subckt sky130_fd_sc_hd__a31oi_4 A1 A2 A3 B1 VGND VNB VPB VPWR Y
.ends

* Black-box entry subcircuit for sky130_fd_sc_hd__a21oi_1 abstract view
.subckt sky130_fd_sc_hd__a21oi_1 A1 A2 B1 VGND VNB VPB VPWR Y
.ends

* Black-box entry subcircuit for sky130_fd_sc_hd__a22o_1 abstract view
.subckt sky130_fd_sc_hd__a22o_1 A1 A2 B1 B2 VGND VNB VPB VPWR X
.ends

* Black-box entry subcircuit for sky130_fd_sc_hd__nand3_1 abstract view
.subckt sky130_fd_sc_hd__nand3_1 A B C VGND VNB VPB VPWR Y
.ends

* Black-box entry subcircuit for sky130_fd_sc_hd__nand3b_2 abstract view
.subckt sky130_fd_sc_hd__nand3b_2 A_N B C VGND VNB VPB VPWR Y
.ends

* Black-box entry subcircuit for sky130_fd_sc_hd__o2bb2ai_1 abstract view
.subckt sky130_fd_sc_hd__o2bb2ai_1 A1_N A2_N B1 B2 VGND VNB VPB VPWR Y
.ends

* Black-box entry subcircuit for sky130_fd_sc_hd__a21oi_4 abstract view
.subckt sky130_fd_sc_hd__a21oi_4 A1 A2 B1 VGND VNB VPB VPWR Y
.ends

* Black-box entry subcircuit for sky130_fd_sc_hd__and2b_1 abstract view
.subckt sky130_fd_sc_hd__and2b_1 A_N B VGND VNB VPB VPWR X
.ends

* Black-box entry subcircuit for sky130_fd_sc_hd__buf_2 abstract view
.subckt sky130_fd_sc_hd__buf_2 A VGND VNB VPB VPWR X
.ends

* Black-box entry subcircuit for sky130_fd_sc_hd__a221o_1 abstract view
.subckt sky130_fd_sc_hd__a221o_1 A1 A2 B1 B2 C1 VGND VNB VPB VPWR X
.ends

* Black-box entry subcircuit for sky130_fd_sc_hd__dfxtp_4 abstract view
.subckt sky130_fd_sc_hd__dfxtp_4 CLK D VGND VNB VPB VPWR Q
.ends

* Black-box entry subcircuit for sky130_fd_sc_hd__a21boi_1 abstract view
.subckt sky130_fd_sc_hd__a21boi_1 A1 A2 B1_N VGND VNB VPB VPWR Y
.ends

* Black-box entry subcircuit for sky130_fd_sc_hd__o21bai_1 abstract view
.subckt sky130_fd_sc_hd__o21bai_1 A1 A2 B1_N VGND VNB VPB VPWR Y
.ends

* Black-box entry subcircuit for sky130_fd_sc_hd__nand3b_4 abstract view
.subckt sky130_fd_sc_hd__nand3b_4 A_N B C VGND VNB VPB VPWR Y
.ends

* Black-box entry subcircuit for sky130_fd_sc_hd__o2111ai_4 abstract view
.subckt sky130_fd_sc_hd__o2111ai_4 A1 A2 B1 C1 D1 VGND VNB VPB VPWR Y
.ends

* Black-box entry subcircuit for sky130_fd_sc_hd__xnor2_4 abstract view
.subckt sky130_fd_sc_hd__xnor2_4 A B VGND VNB VPB VPWR Y
.ends

* Black-box entry subcircuit for sky130_fd_sc_hd__a21bo_1 abstract view
.subckt sky130_fd_sc_hd__a21bo_1 A1 A2 B1_N VGND VNB VPB VPWR X
.ends

* Black-box entry subcircuit for sky130_fd_sc_hd__nand3_2 abstract view
.subckt sky130_fd_sc_hd__nand3_2 A B C VGND VNB VPB VPWR Y
.ends

* Black-box entry subcircuit for sky130_fd_sc_hd__a211o_1 abstract view
.subckt sky130_fd_sc_hd__a211o_1 A1 A2 B1 C1 VGND VNB VPB VPWR X
.ends

* Black-box entry subcircuit for sky130_fd_sc_hd__o22ai_4 abstract view
.subckt sky130_fd_sc_hd__o22ai_4 A1 A2 B1 B2 VGND VNB VPB VPWR Y
.ends

* Black-box entry subcircuit for sky130_fd_sc_hd__o21bai_4 abstract view
.subckt sky130_fd_sc_hd__o21bai_4 A1 A2 B1_N VGND VNB VPB VPWR Y
.ends

* Black-box entry subcircuit for sky130_fd_sc_hd__dlymetal6s2s_1 abstract view
.subckt sky130_fd_sc_hd__dlymetal6s2s_1 A VGND VNB VPB VPWR X
.ends

* Black-box entry subcircuit for sky130_fd_sc_hd__mux2_8 abstract view
.subckt sky130_fd_sc_hd__mux2_8 A0 A1 S VGND VNB VPB VPWR X
.ends

* Black-box entry subcircuit for sky130_fd_sc_hd__and2_1 abstract view
.subckt sky130_fd_sc_hd__and2_1 A B VGND VNB VPB VPWR X
.ends

* Black-box entry subcircuit for sky130_fd_sc_hd__nor3b_4 abstract view
.subckt sky130_fd_sc_hd__nor3b_4 A B C_N VGND VNB VPB VPWR Y
.ends

* Black-box entry subcircuit for sky130_fd_sc_hd__o31ai_4 abstract view
.subckt sky130_fd_sc_hd__o31ai_4 A1 A2 A3 B1 VGND VNB VPB VPWR Y
.ends

* Black-box entry subcircuit for sky130_fd_sc_hd__nand2_2 abstract view
.subckt sky130_fd_sc_hd__nand2_2 A B VGND VNB VPB VPWR Y
.ends

* Black-box entry subcircuit for sky130_fd_sc_hd__a221o_2 abstract view
.subckt sky130_fd_sc_hd__a221o_2 A1 A2 B1 B2 C1 VGND VNB VPB VPWR X
.ends

* Black-box entry subcircuit for sky130_fd_sc_hd__o21a_1 abstract view
.subckt sky130_fd_sc_hd__o21a_1 A1 A2 B1 VGND VNB VPB VPWR X
.ends

* Black-box entry subcircuit for sky130_fd_sc_hd__o22ai_1 abstract view
.subckt sky130_fd_sc_hd__o22ai_1 A1 A2 B1 B2 VGND VNB VPB VPWR Y
.ends

* Black-box entry subcircuit for sky130_fd_sc_hd__clkbuf_4 abstract view
.subckt sky130_fd_sc_hd__clkbuf_4 A VGND VNB VPB VPWR X
.ends

* Black-box entry subcircuit for sky130_fd_sc_hd__and4_2 abstract view
.subckt sky130_fd_sc_hd__and4_2 A B C D VGND VNB VPB VPWR X
.ends

* Black-box entry subcircuit for sky130_fd_sc_hd__o31ai_1 abstract view
.subckt sky130_fd_sc_hd__o31ai_1 A1 A2 A3 B1 VGND VNB VPB VPWR Y
.ends

* Black-box entry subcircuit for sky130_fd_sc_hd__clkinv_4 abstract view
.subckt sky130_fd_sc_hd__clkinv_4 A VGND VNB VPB VPWR Y
.ends

* Black-box entry subcircuit for sky130_fd_sc_hd__mux2_4 abstract view
.subckt sky130_fd_sc_hd__mux2_4 A0 A1 S VGND VNB VPB VPWR X
.ends

* Black-box entry subcircuit for sky130_fd_sc_hd__a31o_2 abstract view
.subckt sky130_fd_sc_hd__a31o_2 A1 A2 A3 B1 VGND VNB VPB VPWR X
.ends

* Black-box entry subcircuit for sky130_fd_sc_hd__a41o_1 abstract view
.subckt sky130_fd_sc_hd__a41o_1 A1 A2 A3 A4 B1 VGND VNB VPB VPWR X
.ends

* Black-box entry subcircuit for sky130_fd_sc_hd__nor3_4 abstract view
.subckt sky130_fd_sc_hd__nor3_4 A B C VGND VNB VPB VPWR Y
.ends

* Black-box entry subcircuit for sky130_fd_sc_hd__and3_1 abstract view
.subckt sky130_fd_sc_hd__and3_1 A B C VGND VNB VPB VPWR X
.ends

* Black-box entry subcircuit for sky130_fd_sc_hd__diode_2 abstract view
.subckt sky130_fd_sc_hd__diode_2 DIODE VGND VNB VPB VPWR
.ends

* Black-box entry subcircuit for sky130_fd_sc_hd__and4_1 abstract view
.subckt sky130_fd_sc_hd__and4_1 A B C D VGND VNB VPB VPWR X
.ends

* Black-box entry subcircuit for sky130_fd_sc_hd__xnor2_2 abstract view
.subckt sky130_fd_sc_hd__xnor2_2 A B VGND VNB VPB VPWR Y
.ends

* Black-box entry subcircuit for sky130_fd_sc_hd__nand2_4 abstract view
.subckt sky130_fd_sc_hd__nand2_4 A B VGND VNB VPB VPWR Y
.ends

* Black-box entry subcircuit for sky130_fd_sc_hd__or2b_2 abstract view
.subckt sky130_fd_sc_hd__or2b_2 A B_N VGND VNB VPB VPWR X
.ends

* Black-box entry subcircuit for sky130_fd_sc_hd__a41oi_2 abstract view
.subckt sky130_fd_sc_hd__a41oi_2 A1 A2 A3 A4 B1 VGND VNB VPB VPWR Y
.ends

* Black-box entry subcircuit for sky130_fd_sc_hd__o21bai_2 abstract view
.subckt sky130_fd_sc_hd__o21bai_2 A1 A2 B1_N VGND VNB VPB VPWR Y
.ends

* Black-box entry subcircuit for sky130_fd_sc_hd__o21ai_4 abstract view
.subckt sky130_fd_sc_hd__o21ai_4 A1 A2 B1 VGND VNB VPB VPWR Y
.ends

* Black-box entry subcircuit for sky130_fd_sc_hd__a31oi_2 abstract view
.subckt sky130_fd_sc_hd__a31oi_2 A1 A2 A3 B1 VGND VNB VPB VPWR Y
.ends

* Black-box entry subcircuit for sky130_fd_sc_hd__a311o_2 abstract view
.subckt sky130_fd_sc_hd__a311o_2 A1 A2 A3 B1 C1 VGND VNB VPB VPWR X
.ends

* Black-box entry subcircuit for sky130_fd_sc_hd__clkbuf_16 abstract view
.subckt sky130_fd_sc_hd__clkbuf_16 A VGND VNB VPB VPWR X
.ends

* Black-box entry subcircuit for sky130_fd_sc_hd__xor2_2 abstract view
.subckt sky130_fd_sc_hd__xor2_2 A B VGND VNB VPB VPWR X
.ends

* Black-box entry subcircuit for sky130_fd_sc_hd__nor3b_2 abstract view
.subckt sky130_fd_sc_hd__nor3b_2 A B C_N VGND VNB VPB VPWR Y
.ends

* Black-box entry subcircuit for sky130_fd_sc_hd__and2b_2 abstract view
.subckt sky130_fd_sc_hd__and2b_2 A_N B VGND VNB VPB VPWR X
.ends

.subckt cic_block io_adr_i[0] io_adr_i[1] io_cs_i io_dat_i[0] io_dat_i[10] io_dat_i[11]
+ io_dat_i[12] io_dat_i[13] io_dat_i[14] io_dat_i[15] io_dat_i[1] io_dat_i[2] io_dat_i[3]
+ io_dat_i[4] io_dat_i[5] io_dat_i[6] io_dat_i[7] io_dat_i[8] io_dat_i[9] io_dat_o[0]
+ io_dat_o[10] io_dat_o[11] io_dat_o[12] io_dat_o[13] io_dat_o[14] io_dat_o[15] io_dat_o[1]
+ io_dat_o[2] io_dat_o[3] io_dat_o[4] io_dat_o[5] io_dat_o[6] io_dat_o[7] io_dat_o[8]
+ io_dat_o[9] io_eo[0] io_eo[10] io_eo[11] io_eo[12] io_eo[13] io_eo[14] io_eo[15]
+ io_eo[16] io_eo[17] io_eo[18] io_eo[19] io_eo[1] io_eo[20] io_eo[21] io_eo[22] io_eo[23]
+ io_eo[24] io_eo[25] io_eo[26] io_eo[27] io_eo[28] io_eo[29] io_eo[2] io_eo[30] io_eo[31]
+ io_eo[32] io_eo[33] io_eo[34] io_eo[35] io_eo[36] io_eo[37] io_eo[38] io_eo[39]
+ io_eo[3] io_eo[40] io_eo[41] io_eo[42] io_eo[43] io_eo[44] io_eo[45] io_eo[46] io_eo[47]
+ io_eo[48] io_eo[49] io_eo[4] io_eo[50] io_eo[51] io_eo[52] io_eo[53] io_eo[54] io_eo[55]
+ io_eo[56] io_eo[57] io_eo[58] io_eo[59] io_eo[5] io_eo[60] io_eo[61] io_eo[62] io_eo[63]
+ io_eo[6] io_eo[7] io_eo[8] io_eo[9] io_i_0_ci io_i_0_in1[0] io_i_0_in1[1] io_i_0_in1[2]
+ io_i_0_in1[3] io_i_0_in1[4] io_i_0_in1[5] io_i_0_in1[6] io_i_0_in1[7] io_i_1_ci
+ io_i_1_in1[0] io_i_1_in1[1] io_i_1_in1[2] io_i_1_in1[3] io_i_1_in1[4] io_i_1_in1[5]
+ io_i_1_in1[6] io_i_1_in1[7] io_i_2_ci io_i_2_in1[0] io_i_2_in1[1] io_i_2_in1[2]
+ io_i_2_in1[3] io_i_2_in1[4] io_i_2_in1[5] io_i_2_in1[6] io_i_2_in1[7] io_i_3_ci
+ io_i_3_in1[0] io_i_3_in1[1] io_i_3_in1[2] io_i_3_in1[3] io_i_3_in1[4] io_i_3_in1[5]
+ io_i_3_in1[6] io_i_3_in1[7] io_i_4_ci io_i_4_in1[0] io_i_4_in1[1] io_i_4_in1[2]
+ io_i_4_in1[3] io_i_4_in1[4] io_i_4_in1[5] io_i_4_in1[6] io_i_4_in1[7] io_i_5_ci
+ io_i_5_in1[0] io_i_5_in1[1] io_i_5_in1[2] io_i_5_in1[3] io_i_5_in1[4] io_i_5_in1[5]
+ io_i_5_in1[6] io_i_5_in1[7] io_i_6_ci io_i_6_in1[0] io_i_6_in1[1] io_i_6_in1[2]
+ io_i_6_in1[3] io_i_6_in1[4] io_i_6_in1[5] io_i_6_in1[6] io_i_6_in1[7] io_i_7_ci
+ io_i_7_in1[0] io_i_7_in1[1] io_i_7_in1[2] io_i_7_in1[3] io_i_7_in1[4] io_i_7_in1[5]
+ io_i_7_in1[6] io_i_7_in1[7] io_o_0_co io_o_0_out[0] io_o_0_out[1] io_o_0_out[2]
+ io_o_0_out[3] io_o_0_out[4] io_o_0_out[5] io_o_0_out[6] io_o_0_out[7] io_o_1_co
+ io_o_1_out[0] io_o_1_out[1] io_o_1_out[2] io_o_1_out[3] io_o_1_out[4] io_o_1_out[5]
+ io_o_1_out[6] io_o_1_out[7] io_o_2_co io_o_2_out[0] io_o_2_out[1] io_o_2_out[2]
+ io_o_2_out[3] io_o_2_out[4] io_o_2_out[5] io_o_2_out[6] io_o_2_out[7] io_o_3_co
+ io_o_3_out[0] io_o_3_out[1] io_o_3_out[2] io_o_3_out[3] io_o_3_out[4] io_o_3_out[5]
+ io_o_3_out[6] io_o_3_out[7] io_o_4_co io_o_4_out[0] io_o_4_out[1] io_o_4_out[2]
+ io_o_4_out[3] io_o_4_out[4] io_o_4_out[5] io_o_4_out[6] io_o_4_out[7] io_o_5_co
+ io_o_5_out[0] io_o_5_out[1] io_o_5_out[2] io_o_5_out[3] io_o_5_out[4] io_o_5_out[5]
+ io_o_5_out[6] io_o_5_out[7] io_o_6_co io_o_6_out[0] io_o_6_out[1] io_o_6_out[2]
+ io_o_6_out[3] io_o_6_out[4] io_o_6_out[5] io_o_6_out[6] io_o_6_out[7] io_o_7_co
+ io_o_7_out[0] io_o_7_out[1] io_o_7_out[2] io_o_7_out[3] io_o_7_out[4] io_o_7_out[5]
+ io_o_7_out[6] io_o_7_out[7] io_vci io_vco io_vi io_we_i io_wo[0] io_wo[10] io_wo[11]
+ io_wo[12] io_wo[13] io_wo[14] io_wo[15] io_wo[16] io_wo[17] io_wo[18] io_wo[19]
+ io_wo[1] io_wo[20] io_wo[21] io_wo[22] io_wo[23] io_wo[24] io_wo[25] io_wo[26] io_wo[27]
+ io_wo[28] io_wo[29] io_wo[2] io_wo[30] io_wo[31] io_wo[32] io_wo[33] io_wo[34] io_wo[35]
+ io_wo[36] io_wo[37] io_wo[38] io_wo[39] io_wo[3] io_wo[40] io_wo[41] io_wo[42] io_wo[43]
+ io_wo[44] io_wo[45] io_wo[46] io_wo[47] io_wo[48] io_wo[49] io_wo[4] io_wo[50] io_wo[51]
+ io_wo[52] io_wo[53] io_wo[54] io_wo[55] io_wo[56] io_wo[57] io_wo[58] io_wo[59]
+ io_wo[5] io_wo[60] io_wo[61] io_wo[62] io_wo[63] io_wo[6] io_wo[7] io_wo[8] io_wo[9]
+ wb_clk_i wb_rst_i vccd1 vssd1
XFILLER_54_269 vssd1 vssd1 vccd1 vccd1 sky130_fd_sc_hd__fill_1
XFILLER_39_233 vssd1 vssd1 vccd1 vccd1 sky130_fd_sc_hd__decap_12
XFILLER_36_19 vssd1 vssd1 vccd1 vccd1 sky130_fd_sc_hd__decap_4
X_2106_ input86/X _1695_/A _1658_/A _2119_/A0 _2244_/Q _2245_/Q vssd1 vssd1 vccd1
+ vccd1 _2106_/X sky130_fd_sc_hd__mux4_2
X_2037_ _1759_/Y _1684_/Y _2294_/Q vssd1 vssd1 vccd1 vccd1 _2037_/X sky130_fd_sc_hd__mux2_1
XFILLER_89_100 vssd1 vssd1 vccd1 vccd1 sky130_fd_sc_hd__decap_12
XFILLER_89_177 vssd1 vssd1 vccd1 vccd1 sky130_fd_sc_hd__decap_4
XFILLER_89_166 vssd1 vssd1 vccd1 vccd1 sky130_fd_sc_hd__fill_2
XFILLER_89_144 vssd1 vssd1 vccd1 vccd1 sky130_fd_sc_hd__decap_4
XFILLER_45_258 vssd1 vssd1 vccd1 vccd1 sky130_fd_sc_hd__decap_4
XFILLER_45_225 vssd1 vssd1 vccd1 vccd1 sky130_fd_sc_hd__decap_3
XFILLER_26_52 vssd1 vssd1 vccd1 vccd1 sky130_fd_sc_hd__decap_4
XFILLER_13_144 vssd1 vssd1 vccd1 vccd1 sky130_fd_sc_hd__decap_4
X_1270_ _1268_/Y _1269_/Y _1258_/A vssd1 vssd1 vccd1 vccd1 _1270_/X sky130_fd_sc_hd__a21o_1
XFILLER_36_203 vssd1 vssd1 vccd1 vccd1 sky130_fd_sc_hd__decap_8
XFILLER_51_217 vssd1 vssd1 vccd1 vccd1 sky130_fd_sc_hd__decap_4
X_1606_ _1607_/A _2137_/X _2138_/X _2139_/X vssd1 vssd1 vccd1 vccd1 _1606_/Y sky130_fd_sc_hd__a31oi_1
XFILLER_86_103 vssd1 vssd1 vccd1 vccd1 sky130_fd_sc_hd__decap_4
X_1399_ _1399_/A _1399_/B vssd1 vssd1 vccd1 vccd1 _1414_/B sky130_fd_sc_hd__nor2_4
X_1468_ _1963_/X _2087_/X vssd1 vssd1 vccd1 vccd1 _1475_/A sky130_fd_sc_hd__nor2_2
X_1537_ _1536_/X _2178_/Q _1546_/S vssd1 vssd1 vccd1 vccd1 _2178_/D sky130_fd_sc_hd__mux2_1
XFILLER_27_258 vssd1 vssd1 vccd1 vccd1 sky130_fd_sc_hd__decap_12
XFILLER_27_225 vssd1 vssd1 vccd1 vccd1 sky130_fd_sc_hd__decap_12
XFILLER_88_58 vssd1 vssd1 vccd1 vccd1 sky130_fd_sc_hd__decap_6
XFILLER_88_47 vssd1 vssd1 vccd1 vccd1 sky130_fd_sc_hd__fill_1
XFILLER_77_136 vssd1 vssd1 vccd1 vccd1 sky130_fd_sc_hd__decap_6
XFILLER_18_236 vssd1 vssd1 vccd1 vccd1 sky130_fd_sc_hd__decap_12
XFILLER_33_228 vssd1 vssd1 vccd1 vccd1 sky130_fd_sc_hd__decap_4
XFILLER_33_217 vssd1 vssd1 vccd1 vccd1 sky130_fd_sc_hd__decap_4
XFILLER_68_147 vssd1 vssd1 vccd1 vccd1 sky130_fd_sc_hd__decap_4
X_1253_ _1248_/B _1253_/B _1253_/C vssd1 vssd1 vccd1 vccd1 _1254_/B sky130_fd_sc_hd__nand3b_1
X_1322_ _2116_/X vssd1 vssd1 vccd1 vccd1 _1752_/A sky130_fd_sc_hd__inv_2
X_1184_ _1172_/X _1876_/C _1187_/C vssd1 vssd1 vccd1 vccd1 _1184_/Y sky130_fd_sc_hd__nand3b_1
Xoutput286 _1921_/X vssd1 vssd1 vccd1 vccd1 io_wo[43] sky130_fd_sc_hd__clkbuf_2
Xoutput275 _1911_/X vssd1 vssd1 vccd1 vccd1 io_wo[33] sky130_fd_sc_hd__clkbuf_2
Xoutput264 _1901_/X vssd1 vssd1 vccd1 vccd1 io_wo[23] sky130_fd_sc_hd__clkbuf_2
Xoutput253 _1891_/X vssd1 vssd1 vccd1 vccd1 io_wo[13] sky130_fd_sc_hd__clkbuf_2
Xoutput220 _2179_/Q vssd1 vssd1 vccd1 vccd1 io_o_4_out[7] sky130_fd_sc_hd__clkbuf_2
Xoutput231 _2148_/Q vssd1 vssd1 vccd1 vccd1 io_o_6_out[0] sky130_fd_sc_hd__clkbuf_2
Xoutput242 _2142_/Q vssd1 vssd1 vccd1 vccd1 io_o_7_out[2] sky130_fd_sc_hd__clkbuf_2
Xoutput297 _1931_/X vssd1 vssd1 vccd1 vccd1 io_wo[53] sky130_fd_sc_hd__clkbuf_2
XFILLER_74_128 vssd1 vssd1 vccd1 vccd1 sky130_fd_sc_hd__decap_8
XFILLER_59_136 vssd1 vssd1 vccd1 vccd1 sky130_fd_sc_hd__decap_6
XFILLER_59_114 vssd1 vssd1 vccd1 vccd1 sky130_fd_sc_hd__fill_1
XFILLER_82_172 vssd1 vssd1 vccd1 vccd1 sky130_fd_sc_hd__decap_8
XFILLER_2_143 vssd1 vssd1 vccd1 vccd1 sky130_fd_sc_hd__fill_1
XFILLER_73_161 vssd1 vssd1 vccd1 vccd1 sky130_fd_sc_hd__fill_1
XFILLER_58_191 vssd1 vssd1 vccd1 vccd1 sky130_fd_sc_hd__fill_1
XFILLER_48_83 vssd1 vssd1 vccd1 vccd1 sky130_fd_sc_hd__decap_4
X_1940_ _1940_/A vssd1 vssd1 vccd1 vccd1 _1940_/X sky130_fd_sc_hd__clkbuf_2
XFILLER_80_70 vssd1 vssd1 vccd1 vccd1 sky130_fd_sc_hd__decap_12
X_1871_ _1871_/A _2282_/Q vssd1 vssd1 vccd1 vccd1 _1871_/Y sky130_fd_sc_hd__nand2_1
XFILLER_9_22 vssd1 vssd1 vccd1 vccd1 sky130_fd_sc_hd__decap_6
XFILLER_21_209 vssd1 vssd1 vccd1 vccd1 sky130_fd_sc_hd__fill_2
XFILLER_50_3 vssd1 vssd1 vccd1 vccd1 sky130_fd_sc_hd__decap_4
X_2285_ _2299_/CLK _2285_/D vssd1 vssd1 vccd1 vccd1 _2285_/Q sky130_fd_sc_hd__dfxtp_1
X_1236_ _1236_/A _1236_/B _1236_/C vssd1 vssd1 vccd1 vccd1 _1269_/B sky130_fd_sc_hd__nand3_4
XFILLER_49_191 vssd1 vssd1 vccd1 vccd1 sky130_fd_sc_hd__decap_8
X_1305_ _2113_/X _1304_/Y _1758_/A _2038_/X vssd1 vssd1 vccd1 vccd1 _1305_/Y sky130_fd_sc_hd__o2bb2ai_2
XFILLER_64_172 vssd1 vssd1 vccd1 vccd1 sky130_fd_sc_hd__decap_12
X_1098_ _2281_/Q _1095_/X _1088_/X _1097_/Y vssd1 vssd1 vccd1 vccd1 _2281_/D sky130_fd_sc_hd__o211a_1
X_1167_ _2258_/Q _1159_/X _1165_/X _1166_/Y vssd1 vssd1 vccd1 vccd1 _2258_/D sky130_fd_sc_hd__o211a_1
XFILLER_60_18 vssd1 vssd1 vccd1 vccd1 sky130_fd_sc_hd__decap_4
XFILLER_20_275 vssd1 vssd1 vccd1 vccd1 sky130_fd_sc_hd__decap_8
XFILLER_20_286 vssd1 vssd1 vccd1 vccd1 sky130_fd_sc_hd__decap_4
XFILLER_87_220 vssd1 vssd1 vccd1 vccd1 sky130_fd_sc_hd__decap_4
XFILLER_69_27 vssd1 vssd1 vccd1 vccd1 sky130_fd_sc_hd__fill_2
XFILLER_87_264 vssd1 vssd1 vccd1 vccd1 sky130_fd_sc_hd__fill_1
XFILLER_47_128 vssd1 vssd1 vccd1 vccd1 sky130_fd_sc_hd__fill_1
XFILLER_18_53 vssd1 vssd1 vccd1 vccd1 sky130_fd_sc_hd__decap_4
XPHY_598 vssd1 vccd1 sky130_fd_sc_hd__tapvpwrvgnd_1
XPHY_587 vssd1 vccd1 sky130_fd_sc_hd__tapvpwrvgnd_1
XPHY_576 vssd1 vccd1 sky130_fd_sc_hd__tapvpwrvgnd_1
XPHY_565 vssd1 vccd1 sky130_fd_sc_hd__tapvpwrvgnd_1
XPHY_554 vssd1 vccd1 sky130_fd_sc_hd__tapvpwrvgnd_1
XFILLER_70_131 vssd1 vssd1 vccd1 vccd1 sky130_fd_sc_hd__decap_8
XPHY_543 vssd1 vccd1 sky130_fd_sc_hd__tapvpwrvgnd_1
XPHY_532 vssd1 vccd1 sky130_fd_sc_hd__tapvpwrvgnd_1
XPHY_521 vssd1 vccd1 sky130_fd_sc_hd__tapvpwrvgnd_1
XPHY_510 vssd1 vccd1 sky130_fd_sc_hd__tapvpwrvgnd_1
XFILLER_11_253 vssd1 vssd1 vccd1 vccd1 sky130_fd_sc_hd__decap_4
XFILLER_11_286 vssd1 vssd1 vccd1 vccd1 sky130_fd_sc_hd__fill_1
XFILLER_93_212 vssd1 vssd1 vccd1 vccd1 sky130_fd_sc_hd__decap_4
XFILLER_78_286 vssd1 vssd1 vccd1 vccd1 sky130_fd_sc_hd__decap_4
XFILLER_78_264 vssd1 vssd1 vccd1 vccd1 sky130_fd_sc_hd__decap_6
XFILLER_59_71 vssd1 vssd1 vccd1 vccd1 sky130_fd_sc_hd__decap_12
X_2070_ _2070_/A0 _2227_/Q _2248_/Q vssd1 vssd1 vccd1 vccd1 _2070_/X sky130_fd_sc_hd__mux2_1
XFILLER_93_289 vssd1 vssd1 vccd1 vccd1 sky130_fd_sc_hd__fill_1
XFILLER_61_164 vssd1 vssd1 vccd1 vccd1 sky130_fd_sc_hd__decap_4
X_1021_ _1219_/A vssd1 vssd1 vccd1 vccd1 _1193_/A sky130_fd_sc_hd__inv_2
XFILLER_61_120 vssd1 vssd1 vccd1 vccd1 sky130_fd_sc_hd__decap_8
XFILLER_46_183 vssd1 vssd1 vccd1 vccd1 sky130_fd_sc_hd__decap_4
XFILLER_46_172 vssd1 vssd1 vccd1 vccd1 sky130_fd_sc_hd__decap_8
X_1923_ _1923_/A vssd1 vssd1 vccd1 vccd1 _1923_/X sky130_fd_sc_hd__clkbuf_2
X_1854_ _2269_/Q _1849_/X _1850_/X _1853_/X vssd1 vssd1 vccd1 vccd1 _1854_/X sky130_fd_sc_hd__a31o_1
X_1785_ _2213_/Q vssd1 vssd1 vccd1 vccd1 _1785_/Y sky130_fd_sc_hd__inv_2
XFILLER_69_253 vssd1 vssd1 vccd1 vccd1 sky130_fd_sc_hd__decap_4
XFILLER_6_290 vssd1 vssd1 vccd1 vccd1 sky130_fd_sc_hd__fill_1
XFILLER_84_267 vssd1 vssd1 vccd1 vccd1 sky130_fd_sc_hd__decap_4
XFILLER_84_256 vssd1 vssd1 vccd1 vccd1 sky130_fd_sc_hd__decap_8
XFILLER_69_286 vssd1 vssd1 vccd1 vccd1 sky130_fd_sc_hd__decap_4
X_1219_ _1219_/A _1949_/X vssd1 vssd1 vccd1 vccd1 _2236_/D sky130_fd_sc_hd__nor2b_1
XFILLER_29_139 vssd1 vssd1 vccd1 vccd1 sky130_fd_sc_hd__decap_4
X_2268_ _2268_/CLK _2268_/D vssd1 vssd1 vccd1 vccd1 _2268_/Q sky130_fd_sc_hd__dfxtp_2
X_2199_ _2231_/CLK _2199_/D vssd1 vssd1 vccd1 vccd1 _2199_/Q sky130_fd_sc_hd__dfxtp_1
XFILLER_71_28 vssd1 vssd1 vccd1 vccd1 sky130_fd_sc_hd__fill_1
XFILLER_75_234 vssd1 vssd1 vccd1 vccd1 sky130_fd_sc_hd__decap_4
XFILLER_75_201 vssd1 vssd1 vccd1 vccd1 sky130_fd_sc_hd__decap_4
XFILLER_29_30 vssd1 vssd1 vccd1 vccd1 sky130_fd_sc_hd__decap_4
XFILLER_43_142 vssd1 vssd1 vccd1 vccd1 sky130_fd_sc_hd__fill_1
XFILLER_28_172 vssd1 vssd1 vccd1 vccd1 sky130_fd_sc_hd__decap_6
XFILLER_61_50 vssd1 vssd1 vccd1 vccd1 sky130_fd_sc_hd__decap_12
XPHY_395 vssd1 vccd1 sky130_fd_sc_hd__tapvpwrvgnd_1
XPHY_384 vssd1 vccd1 sky130_fd_sc_hd__tapvpwrvgnd_1
XPHY_373 vssd1 vccd1 sky130_fd_sc_hd__tapvpwrvgnd_1
XPHY_362 vssd1 vccd1 sky130_fd_sc_hd__tapvpwrvgnd_1
XPHY_351 vssd1 vccd1 sky130_fd_sc_hd__tapvpwrvgnd_1
XPHY_340 vssd1 vccd1 sky130_fd_sc_hd__tapvpwrvgnd_1
X_1570_ _1569_/Y _2129_/X _2127_/X _2128_/X vssd1 vssd1 vccd1 vccd1 _1583_/B sky130_fd_sc_hd__and4b_1
XFILLER_6_45 vssd1 vssd1 vccd1 vccd1 sky130_fd_sc_hd__fill_1
X_2053_ _1737_/Y _1736_/Y _2296_/Q vssd1 vssd1 vccd1 vccd1 _2053_/X sky130_fd_sc_hd__mux2_1
XFILLER_66_267 vssd1 vssd1 vccd1 vccd1 sky130_fd_sc_hd__decap_4
X_2122_ _2122_/A0 _2192_/Q _2208_/Q _2232_/Q _2252_/Q _2253_/Q vssd1 vssd1 vccd1 vccd1
+ _2122_/X sky130_fd_sc_hd__mux4_2
XFILLER_19_172 vssd1 vssd1 vccd1 vccd1 sky130_fd_sc_hd__decap_4
X_1906_ _1906_/A vssd1 vssd1 vccd1 vccd1 _1906_/X sky130_fd_sc_hd__clkbuf_2
X_1837_ _1745_/Y _1814_/Y _1836_/Y vssd1 vssd1 vccd1 vccd1 _1837_/Y sky130_fd_sc_hd__o21ai_1
X_1768_ _2196_/Q vssd1 vssd1 vccd1 vccd1 _1768_/Y sky130_fd_sc_hd__inv_2
XFILLER_57_201 vssd1 vssd1 vccd1 vccd1 sky130_fd_sc_hd__decap_4
XFILLER_1_208 vssd1 vssd1 vccd1 vccd1 sky130_fd_sc_hd__decap_8
X_1699_ _1699_/A vssd1 vssd1 vccd1 vccd1 _1699_/Y sky130_fd_sc_hd__inv_2
XFILLER_82_27 vssd1 vssd1 vccd1 vccd1 sky130_fd_sc_hd__decap_4
XFILLER_57_256 vssd1 vssd1 vccd1 vccd1 sky130_fd_sc_hd__fill_1
XFILLER_25_120 vssd1 vssd1 vccd1 vccd1 sky130_fd_sc_hd__decap_12
XFILLER_80_281 vssd1 vssd1 vccd1 vccd1 sky130_fd_sc_hd__decap_4
XFILLER_40_167 vssd1 vssd1 vccd1 vccd1 sky130_fd_sc_hd__decap_4
XFILLER_40_134 vssd1 vssd1 vccd1 vccd1 sky130_fd_sc_hd__decap_4
XFILLER_15_87 vssd1 vssd1 vccd1 vccd1 sky130_fd_sc_hd__decap_4
Xinput153 io_i_7_in1[5] vssd1 vssd1 vccd1 vccd1 _1672_/A sky130_fd_sc_hd__clkbuf_2
XFILLER_0_241 vssd1 vssd1 vccd1 vccd1 sky130_fd_sc_hd__decap_4
Xinput120 io_i_4_ci vssd1 vssd1 vccd1 vccd1 _2003_/A0 sky130_fd_sc_hd__buf_1
Xinput131 io_i_5_in1[1] vssd1 vssd1 vccd1 vccd1 _1754_/A sky130_fd_sc_hd__clkbuf_1
Xinput142 io_i_6_in1[3] vssd1 vssd1 vccd1 vccd1 _1727_/A sky130_fd_sc_hd__clkbuf_2
XPHY_170 vssd1 vssd1 vccd1 vccd1 sky130_fd_sc_hd__decap_3
XFILLER_63_248 vssd1 vssd1 vccd1 vccd1 sky130_fd_sc_hd__decap_8
XFILLER_56_94 vssd1 vssd1 vccd1 vccd1 sky130_fd_sc_hd__decap_8
XFILLER_31_167 vssd1 vssd1 vccd1 vccd1 sky130_fd_sc_hd__decap_4
XFILLER_16_197 vssd1 vssd1 vccd1 vccd1 sky130_fd_sc_hd__decap_4
XPHY_181 vssd1 vssd1 vccd1 vccd1 sky130_fd_sc_hd__decap_3
XPHY_192 vssd1 vccd1 sky130_fd_sc_hd__tapvpwrvgnd_1
X_1622_ _2134_/X _1622_/B vssd1 vssd1 vccd1 vccd1 _1622_/Y sky130_fd_sc_hd__xnor2_1
X_1484_ _1951_/X vssd1 vssd1 vccd1 vccd1 _1485_/A sky130_fd_sc_hd__inv_2
XFILLER_39_201 vssd1 vssd1 vccd1 vccd1 sky130_fd_sc_hd__decap_12
X_1553_ _1949_/X _1550_/Y _1552_/Y vssd1 vssd1 vccd1 vccd1 _2173_/D sky130_fd_sc_hd__o21ai_1
XFILLER_39_245 vssd1 vssd1 vccd1 vccd1 sky130_fd_sc_hd__decap_12
X_2105_ input85/X _1699_/A _1742_/A _1803_/A _2244_/Q _2245_/Q vssd1 vssd1 vccd1 vccd1
+ _2105_/X sky130_fd_sc_hd__mux4_2
X_2036_ _1760_/Y _2035_/X _2295_/Q vssd1 vssd1 vccd1 vccd1 _2036_/X sky130_fd_sc_hd__mux2_2
XFILLER_62_281 vssd1 vssd1 vccd1 vccd1 sky130_fd_sc_hd__decap_4
XFILLER_52_19 vssd1 vssd1 vccd1 vccd1 sky130_fd_sc_hd__decap_8
XFILLER_89_112 vssd1 vssd1 vccd1 vccd1 sky130_fd_sc_hd__decap_4
XFILLER_77_49 vssd1 vssd1 vccd1 vccd1 sky130_fd_sc_hd__decap_8
XFILLER_77_38 vssd1 vssd1 vccd1 vccd1 sky130_fd_sc_hd__fill_2
XFILLER_93_59 vssd1 vssd1 vccd1 vccd1 sky130_fd_sc_hd__decap_4
XFILLER_60_229 vssd1 vssd1 vccd1 vccd1 sky130_fd_sc_hd__decap_8
XFILLER_53_281 vssd1 vssd1 vccd1 vccd1 sky130_fd_sc_hd__decap_4
XFILLER_26_31 vssd1 vssd1 vccd1 vccd1 sky130_fd_sc_hd__decap_8
XFILLER_9_138 vssd1 vssd1 vccd1 vccd1 sky130_fd_sc_hd__decap_4
XFILLER_3_68 vssd1 vssd1 vccd1 vccd1 sky130_fd_sc_hd__fill_1
XFILLER_67_82 vssd1 vssd1 vccd1 vccd1 sky130_fd_sc_hd__decap_4
XFILLER_36_259 vssd1 vssd1 vccd1 vccd1 sky130_fd_sc_hd__fill_2
XFILLER_80_3 vssd1 vssd1 vccd1 vccd1 sky130_fd_sc_hd__decap_4
XFILLER_44_281 vssd1 vssd1 vccd1 vccd1 sky130_fd_sc_hd__decap_4
X_1536_ _1536_/A _1541_/B vssd1 vssd1 vccd1 vccd1 _1536_/X sky130_fd_sc_hd__xor2_1
X_1605_ _1618_/A _1618_/B vssd1 vssd1 vccd1 vccd1 _1607_/A sky130_fd_sc_hd__nor2_1
XFILLER_8_160 vssd1 vssd1 vccd1 vccd1 sky130_fd_sc_hd__decap_8
XFILLER_86_126 vssd1 vssd1 vccd1 vccd1 sky130_fd_sc_hd__decap_6
XFILLER_86_115 vssd1 vssd1 vccd1 vccd1 sky130_fd_sc_hd__decap_4
X_1398_ _1981_/X _2063_/X _1979_/X _2060_/X vssd1 vssd1 vccd1 vccd1 _1399_/B sky130_fd_sc_hd__a211oi_4
X_1467_ _1961_/X _2084_/X vssd1 vssd1 vccd1 vccd1 _1499_/A sky130_fd_sc_hd__xor2_4
X_2019_ _1781_/Y _1728_/Y _2292_/Q vssd1 vssd1 vccd1 vccd1 _2019_/X sky130_fd_sc_hd__mux2_1
XFILLER_42_229 vssd1 vssd1 vccd1 vccd1 sky130_fd_sc_hd__decap_4
XFILLER_27_237 vssd1 vssd1 vccd1 vccd1 sky130_fd_sc_hd__decap_12
XFILLER_50_295 vssd1 vssd1 vccd1 vccd1 sky130_fd_sc_hd__decap_4
XFILLER_50_273 vssd1 vssd1 vccd1 vccd1 sky130_fd_sc_hd__decap_4
XFILLER_6_108 vssd1 vssd1 vccd1 vccd1 sky130_fd_sc_hd__decap_6
XFILLER_10_104 vssd1 vssd1 vccd1 vccd1 sky130_fd_sc_hd__decap_8
XFILLER_10_115 vssd1 vssd1 vccd1 vccd1 sky130_fd_sc_hd__decap_4
XFILLER_12_11 vssd1 vssd1 vccd1 vccd1 sky130_fd_sc_hd__decap_4
XFILLER_12_33 vssd1 vssd1 vccd1 vccd1 sky130_fd_sc_hd__fill_1
XFILLER_12_88 vssd1 vssd1 vccd1 vccd1 sky130_fd_sc_hd__decap_4
XFILLER_85_181 vssd1 vssd1 vccd1 vccd1 sky130_fd_sc_hd__decap_12
XFILLER_37_30 vssd1 vssd1 vccd1 vccd1 sky130_fd_sc_hd__decap_4
XFILLER_53_84 vssd1 vssd1 vccd1 vccd1 sky130_fd_sc_hd__fill_2
XFILLER_53_40 vssd1 vssd1 vccd1 vccd1 sky130_fd_sc_hd__decap_8
XFILLER_41_295 vssd1 vssd1 vccd1 vccd1 sky130_fd_sc_hd__decap_4
XFILLER_41_251 vssd1 vssd1 vccd1 vccd1 sky130_fd_sc_hd__decap_6
XFILLER_26_281 vssd1 vssd1 vccd1 vccd1 sky130_fd_sc_hd__decap_4
XFILLER_76_170 vssd1 vssd1 vccd1 vccd1 sky130_fd_sc_hd__fill_1
XFILLER_68_159 vssd1 vssd1 vccd1 vccd1 sky130_fd_sc_hd__decap_12
XFILLER_68_115 vssd1 vssd1 vccd1 vccd1 sky130_fd_sc_hd__decap_4
X_1252_ _1262_/A _1252_/B _1262_/B vssd1 vssd1 vccd1 vccd1 _1253_/B sky130_fd_sc_hd__nand3_4